*Heading
** Job name: Pnc60clt2-r1 Model name: Pnc60clt2-r1
** Generated by: Abaqus/CAE 6.12-2
*Preprint, echo=NO, model=NO, history=NO, contact=NO
**
** PARTS
**
*Part, name=bot-part
*Node
      1,          83.,   12.6999998,    3.4289999
      2,          83.,   12.6999998,           0.
      3,          83.,           0.,    3.4289999
      4,          83.,           0.,           0.
      5,          53.,   12.6999998,           0.
      6,          53.,   12.6999998,    3.4289999
      7,          53.,           0.,           0.
      8,          53.,           0.,    3.4289999
      9,           0.,           0.,    3.4289999
     10,           0.,           0.,           0.
     11,           0.,   12.6999998,    3.4289999
     12,           0.,   12.6999998,           0.
     13,   114.300003,   12.6999998,    3.4289999
     14,   114.300003,           0.,    3.4289999
     15,   114.300003,           0.,           0.
     16,   114.300003,   12.6999998,           0.
     17,          83.,   12.1920004,           0.
     18,          83.,       11.684,           0.
     19,          83.,   11.1759996,           0.
     20,          83.,   10.6680002,           0.
** ... 10796 like lines cut
*Element, type=SC8R
   1,   89,  665,  256,    7,   88, 2393,  113,    8
   2,  665,  666,  255,  256, 2393, 2394,  114,  113
   3,  666,  667,  254,  255, 2394, 2395,  115,  114
   4,  667,  668,  253,  254, 2395, 2396,  116,  115
   5,  668,  669,  252,  253, 2396, 2397,  117,  116
   6,  669,  670,  251,  252, 2397, 2398,  118,  117
   7,  670,  671,  250,  251, 2398, 2399,  119,  118
   8,  671,  672,  249,  250, 2399, 2400,  120,  119
   9,  672,  673,  248,  249, 2400, 2401,  121,  120
  10,  673,  674,  247,  248, 2401, 2402,  122,  121
  11,  674,  675,  246,  247, 2402, 2403,  123,  122
  12,  675,  676,  245,  246, 2403, 2404,  124,  123
  13,  676,  677,  244,  245, 2404, 2405,  125,  124
  14,  677,  678,  243,  244, 2405, 2406,  126,  125
  15,  678,  679,  242,  243, 2406, 2407,  127,  126
  16,  679,  680,  241,  242, 2407, 2408,  128,  127
  17,  680,  681,  240,  241, 2408, 2409,  129,  128
  18,  681,  682,  239,  240, 2409, 2410,  130,  129
  19,  682,  683,  238,  239, 2410, 2411,  131,  130
  20,  683,  684,  237,  238, 2411, 2412,  132,  131
** ... 5155 like lines cut
*Nset, nset=_PickedSet37, internal, generate
     1,  10816,      1
*Elset, elset=_PickedSet37, internal, generate
    1,  5175,     1
*Elset, elset=_topsurf_S2, internal, generate
    1,  5175,     1
*Surface, type=ELEMENT, name=topsurf
_topsurf_S2, S2
*Orientation, name=Ori-1
          1.,           0.,           0.,           0.,           1.,           0.
3, 0.
** Region: (CompositeLayup-1-1: Generated From Layup)
*Elset, elset=CompositeLayup-1-1, generate
    1,  5175,     1
** Section: CompositeLayup-1-1
*Shell Section, elset=CompositeLayup-1-1, composite, orientation=Ori-1, stack direction=3, layup=CompositeLayup-1
0.037037, 1, Material-1, 60., Ply-1
0.037037, 1, Material-1, 0., Ply-2
0.037037, 1, Material-1, 60., Ply-3
0.037037, 1, Material-1, 60., Ply-4
0.037037, 1, Material-1, 60., Ply-5
0.037037, 1, Material-1, -60., Ply-6
0.037037, 1, Material-1, -60., Ply-7
0.037037, 1, Material-1, -60., Ply-8
0.037037, 1, Material-1, -60., Ply-9
0.037037, 1, Material-1, -30., Ply-10
0.037037, 1, Material-1, -60., Ply-11
0.037037, 1, Material-1, -30., Ply-12
0.037037, 1, Material-1, 90., Ply-13
0.037037, 1, Material-1, -30., Ply-14
0.037037, 1, Material-1, 30., Ply-15
0.037037, 1, Material-1, 90., Ply-16
0.037037, 1, Material-1, 30., Ply-17
0.037037, 1, Material-1, 60., Ply-18
0.037037, 1, Material-1, 30., Ply-19
0.037037, 1, Material-1, 60., Ply-20
** ... 7 like lines cut
*End Part
**  
*Part, name=fnm
*Node
      1,          83.,   12.6999998,  0.762000024
      2,          83.,   12.6999998,           0.
      3,          83.,           0.,  0.762000024
      4,          83.,           0.,           0.
      5,          53.,   12.6999998,           0.
      6,          53.,   12.6999998,  0.762000024
      7,          53.,           0.,           0.
      8,          53.,           0.,  0.762000024
      9,           0.,           0.,  0.762000024
     10,           0.,           0.,           0.
     11,           0.,   12.6999998,  0.762000024
     12,           0.,   12.6999998,           0.
     13,   114.300003,   12.6999998,  0.762000024
     14,   114.300003,           0.,  0.762000024
     15,   114.300003,           0.,           0.
     16,   114.300003,   12.6999998,           0.
     17,          83.,   12.1920004,           0.
     18,          83.,       11.684,           0.
     19,          83.,   11.1759996,           0.
     20,          83.,   10.6680002,           0.
** ... 10796 like lines cut
*Element, type=C3D8R
   1,   89,  665,  256,    7,   88, 2393,  113,    8
   2,  665,  666,  255,  256, 2393, 2394,  114,  113
   3,  666,  667,  254,  255, 2394, 2395,  115,  114
   4,  667,  668,  253,  254, 2395, 2396,  116,  115
   5,  668,  669,  252,  253, 2396, 2397,  117,  116
   6,  669,  670,  251,  252, 2397, 2398,  118,  117
   7,  670,  671,  250,  251, 2398, 2399,  119,  118
   8,  671,  672,  249,  250, 2399, 2400,  120,  119
   9,  672,  673,  248,  249, 2400, 2401,  121,  120
  10,  673,  674,  247,  248, 2401, 2402,  122,  121
  11,  674,  675,  246,  247, 2402, 2403,  123,  122
  12,  675,  676,  245,  246, 2403, 2404,  124,  123
  13,  676,  677,  244,  245, 2404, 2405,  125,  124
  14,  677,  678,  243,  244, 2405, 2406,  126,  125
  15,  678,  679,  242,  243, 2406, 2407,  127,  126
  16,  679,  680,  241,  242, 2407, 2408,  128,  127
  17,  680,  681,  240,  241, 2408, 2409,  129,  128
  18,  681,  682,  239,  240, 2409, 2410,  130,  129
  19,  682,  683,  238,  239, 2410, 2411,  131,  130
  20,  683,  684,  237,  238, 2411, 2412,  132,  131
** ... 5155 like lines cut
*Elset, elset=predelam, generate
    1,  1825,     1
*Nset, nset=right_tie
  13,  14,  15,  16, 449, 450, 451, 452, 453, 454, 455, 456, 457, 458, 459, 460
 461, 462, 463, 464, 465, 466, 467, 468, 469, 470, 471, 472, 473, 474, 475, 476
 477, 478, 479, 480, 481, 482, 483, 484, 485, 486, 487, 488, 489, 490, 491, 492
 493, 494, 495, 496
*Nset, nset=topsurf_tie
     1,     3,     6,     8,     9,    11,    13,    14,    41,    42,    43,    44,    45,    46,    47,    48
    49,    50,    51,    52,    53,    54,    55,    56,    57,    58,    59,    60,    61,    62,    63,    64
    65,    66,    67,    68,    69,    70,    71,    72,    73,    74,    75,    76,    77,    78,    79,    80
    81,    82,    83,    84,    85,    86,    87,    88,   113,   114,   115,   116,   117,   118,   119,   120
   121,   122,   123,   124,   125,   126,   127,   128,   129,   130,   131,   132,   133,   134,   135,   136
   137,   138,   139,   140,   141,   142,   143,   144,   145,   146,   147,   148,   149,   150,   151,   152
   153,   154,   155,   156,   157,   158,   159,   160,   161,   162,   163,   164,   165,   166,   167,   168
   169,   170,   171,   172,   173,   174,   175,   176,   177,   178,   179,   180,   181,   182,   183,   184
   257,   258,   259,   260,   261,   262,   263,   264,   265,   266,   267,   268,   269,   270,   271,   272
   273,   274,   275,   276,   277,   278,   279,   280,   281,   282,   283,   284,   285,   286,   287,   288
   289,   290,   291,   292,   293,   294,   295,   296,   297,   298,   299,   300,   301,   302,   303,   304
   305,   306,   307,   308,   309,   310,   311,   312,   313,   314,   315,   316,   317,   318,   319,   320
   321,   322,   323,   324,   325,   326,   327,   328,   425,   426,   427,   428,   429,   430,   431,   432
   433,   434,   435,   436,   437,   438,   439,   440,   441,   442,   443,   444,   445,   446,   447,   448
   449,   450,   451,   452,   453,   454,   455,   456,   457,   458,   459,   460,   461,   462,   463,   464
   465,   466,   467,   468,   469,   470,   471,   472,   539,   540,   541,   542,   543,   544,   545,   546
   547,   548,   549,   550,   551,   552,   553,   554,   555,   556,   557,   558,   559,   560,   561,   562
   563,   564,   565,   566,   567,   568,   569,   570,   571,   572,   573,   574,   575,   576,   577,   578
   579,   580,   623,   624,   625,   626,   627,   628,   629,   630,   631,   632,   633,   634,   635,   636
   637,   638,   639,   640,   641,   642,   643,   644,   645,   646,   647,   648,   649,   650,   651,   652
** ... 318 like lines cut
*Nset, nset=botsurf_tie
     2,     4,     5,     7,    10,    12,    15,    16,    17,    18,    19,    20,    21,    22,    23,    24
    25,    26,    27,    28,    29,    30,    31,    32,    33,    34,    35,    36,    37,    38,    39,    40
    89,    90,    91,    92,    93,    94,    95,    96,    97,    98,    99,   100,   101,   102,   103,   104
   105,   106,   107,   108,   109,   110,   111,   112,   185,   186,   187,   188,   189,   190,   191,   192
   193,   194,   195,   196,   197,   198,   199,   200,   201,   202,   203,   204,   205,   206,   207,   208
   209,   210,   211,   212,   213,   214,   215,   216,   217,   218,   219,   220,   221,   222,   223,   224
   225,   226,   227,   228,   229,   230,   231,   232,   233,   234,   235,   236,   237,   238,   239,   240
   241,   242,   243,   244,   245,   246,   247,   248,   249,   250,   251,   252,   253,   254,   255,   256
   329,   330,   331,   332,   333,   334,   335,   336,   337,   338,   339,   340,   341,   342,   343,   344
   345,   346,   347,   348,   349,   350,   351,   352,   353,   354,   355,   356,   357,   358,   359,   360
   361,   362,   363,   364,   365,   366,   367,   368,   369,   370,   371,   372,   373,   374,   375,   376
   377,   378,   379,   380,   381,   382,   383,   384,   385,   386,   387,   388,   389,   390,   391,   392
   393,   394,   395,   396,   397,   398,   399,   400,   401,   402,   403,   404,   405,   406,   407,   408
   409,   410,   411,   412,   413,   414,   415,   416,   417,   418,   419,   420,   421,   422,   423,   424
   473,   474,   475,   476,   477,   478,   479,   480,   481,   482,   483,   484,   485,   486,   487,   488
   489,   490,   491,   492,   493,   494,   495,   496,   497,   498,   499,   500,   501,   502,   503,   504
   505,   506,   507,   508,   509,   510,   511,   512,   513,   514,   515,   516,   517,   518,   519,   520
   521,   522,   523,   524,   525,   526,   527,   528,   529,   530,   531,   532,   533,   534,   535,   536
   537,   538,   581,   582,   583,   584,   585,   586,   587,   588,   589,   590,   591,   592,   593,   594
   595,   596,   597,   598,   599,   600,   601,   602,   603,   604,   605,   606,   607,   608,   609,   610
** ... 318 like lines cut
*End Part
**  
*Part, name=top-part
*Node
      1,          83.,   12.6999998,        2.921
      2,          83.,   12.6999998,           0.
      3,          83.,           0.,           0.
      4,          83.,           0.,        2.921
      5,          53.,   12.6999998,           0.
      6,          53.,   12.6999998,        2.921
      7,          53.,           0.,           0.
      8,          53.,           0.,        2.921
      9,           0.,   12.6999998,           0.
     10,           0.,   12.6999998,        2.921
     11,           0.,           0.,           0.
     12,           0.,           0.,        2.921
     13,   114.300003,   12.6999998,        2.921
     14,   114.300003,           0.,        2.921
     15,   114.300003,           0.,           0.
     16,   114.300003,   12.6999998,           0.
     17,          83.,  0.508000016,        2.921
     18,          83.,   1.01600003,        2.921
     19,          83.,   1.52400005,        2.921
     20,          83.,   2.03200006,        2.921
** ... 8404 like lines cut
*Element, type=SC8R
  1, 1105,  112,    5,  113,  481,   65,    6,  164
  2, 1106, 1105,  113,  114,  482,  481,  164,  163
  3, 1107, 1106,  114,  115,  483,  482,  163,  162
  4, 1108, 1107,  115,  116,  484,  483,  162,  161
  5, 1109, 1108,  116,  117,  485,  484,  161,  160
  6, 1110, 1109,  117,  118,  486,  485,  160,  159
  7, 1111, 1110,  118,  119,  487,  486,  159,  158
  8, 1112, 1111,  119,  120,  488,  487,  158,  157
  9, 1113, 1112,  120,  121,  489,  488,  157,  156
 10, 1114, 1113,  121,  122,  490,  489,  156,  155
 11, 1115, 1114,  122,  123,  491,  490,  155,  154
 12, 1116, 1115,  123,  124,  492,  491,  154,  153
 13, 1117, 1116,  124,  125,  493,  492,  153,  152
 14, 1118, 1117,  125,  126,  494,  493,  152,  151
 15, 1119, 1118,  126,  127,  495,  494,  151,  150
 16, 1120, 1119,  127,  128,  496,  495,  150,  149
 17, 1121, 1120,  128,  129,  497,  496,  149,  148
 18, 1122, 1121,  129,  130,  498,  497,  148,  147
 19, 1123, 1122,  130,  131,  499,  498,  147,  146
 20, 1124, 1123,  131,  132,  500,  499,  146,  145
** ... 4005 like lines cut
*Nset, nset=_PickedSet36, internal, generate
    1,  8424,     1
*Elset, elset=_PickedSet36, internal, generate
    1,  4025,     1
*Elset, elset=_botsurf_S1, internal, generate
    1,  4025,     1
*Surface, type=ELEMENT, name=botsurf
_botsurf_S1, S1
*Orientation, name=Ori-1
          1.,           0.,           0.,           0.,           1.,           0.
3, 0.
** Region: (CompositeLayup-1-1: Generated From Layup)
*Elset, elset=CompositeLayup-1-1, generate
    1,  4025,     1
** Section: CompositeLayup-1-1
*Shell Section, elset=CompositeLayup-1-1, composite, orientation=Ori-1, stack direction=3, layup=CompositeLayup-1
0.0434783, 1, Material-1, -60., Ply-1
0.0434783, 1, Material-1, -60., Ply-2
0.0434783, 1, Material-1, -60., Ply-3
0.0434783, 1, Material-1, -60., Ply-4
0.0434783, 1, Material-1, -30., Ply-5
0.0434783, 1, Material-1, -60., Ply-6
0.0434783, 1, Material-1, -30., Ply-7
0.0434783, 1, Material-1, 90., Ply-8
0.0434783, 1, Material-1, -30., Ply-9
0.0434783, 1, Material-1, 30., Ply-10
0.0434783, 1, Material-1, 90., Ply-11
0.0434783, 1, Material-1, 30., Ply-12
0.0434783, 1, Material-1, 60., Ply-13
0.0434783, 1, Material-1, 30., Ply-14
0.0434783, 1, Material-1, 60., Ply-15
0.0434783, 1, Material-1, 60., Ply-16
0.0434783, 1, Material-1, 60., Ply-17
0.0434783, 1, Material-1, 60., Ply-18
0.0434783, 1, Material-1, 0., Ply-19
0.0434783, 1, Material-1, -60., Ply-20
0.0434783, 1, Material-1, -60., Ply-21
0.0434783, 1, Material-1, -60., Ply-22
0.0434783, 1, Material-1, -60., Ply-23
*End Part
**  
**
** ASSEMBLY
**
*Assembly, name=Assembly
**  
*Instance, name=bot-part-1, part=bot-part
*End Instance
**  
*Instance, name=fnm-1, part=fnm
          0.,           0.,        3.429
*End Instance
**  
*Instance, name=top-part-1, part=top-part
          0.,           0.,        4.191
*End Instance
**  
*Nset, nset=fixleft, instance=bot-part-1
   9,  10,  11,  12, 401, 402, 403, 404, 405, 406, 407, 408, 409, 410, 411, 412
 413, 414, 415, 416, 417, 418, 419, 420, 421, 422, 423, 424, 425, 426, 427, 428
 429, 430, 431, 432, 433, 434, 435, 436, 437, 438, 439, 440, 441, 442, 443, 444
 445, 446, 447, 448
*Elset, elset=fixleft, instance=bot-part-1, generate
   73,  1825,    73
*Nset, nset=fixright, instance=bot-part-1
  13,  14,  15,  16, 449, 450, 451, 452, 453, 454, 455, 456, 457, 458, 459, 460
 461, 462, 463, 464, 465, 466, 467, 468, 469, 470, 471, 472, 473, 474, 475, 476
 477, 478, 479, 480, 481, 482, 483, 484, 485, 486, 487, 488, 489, 490, 491, 492
 493, 494, 495, 496
*Nset, nset=fixright, instance=top-part-1
  13,  14,  15,  16, 265, 266, 267, 268, 269, 270, 271, 272, 273, 274, 275, 276
 277, 278, 279, 280, 281, 282, 283, 284, 285, 286, 287, 288, 289, 290, 291, 292
 293, 294, 295, 296, 297, 298, 299, 300, 301, 302, 303, 304, 305, 306, 307, 308
 309, 310, 311, 312
*Elset, elset=fixright, instance=bot-part-1, generate
 1826,  1850,     1
*Elset, elset=fixright, instance=top-part-1, generate
 676,  700,    1
*Nset, nset=load, instance=top-part-1
 3746, 3748, 4045, 4046, 4047, 4048, 4049, 4050, 4051, 4052, 4053, 4054, 4055, 4056, 4057, 4058
 4059, 4060, 4061, 4062, 4063, 4064, 4065, 4066, 4067, 4068
*Elset, elset=load, instance=top-part-1
 1825, 1900, 1975, 2050, 2125, 2200, 2275, 2350, 2425, 2500, 2575, 2650, 2725, 2800, 2875, 2950
 3025, 3100, 3175, 3250, 3325, 3400, 3475, 3550, 3625, 3626, 3642, 3658, 3674, 3690, 3706, 3722
 3738, 3754, 3770, 3786, 3802, 3818, 3834, 3850, 3866, 3882, 3898, 3914, 3930, 3946, 3962, 3978
 3994, 4010
*Surface, type=NODE, name=fnm-1_botsurf_tie_CNS_, internal
fnm-1.botsurf_tie, 1.
*Surface, type=NODE, name=fnm-1_topsurf_tie_CNS_, internal
fnm-1.topsurf_tie, 1.
** Constraint: Constraint-1
*Tie, name=Constraint-1, adjust=yes
fnm-1_botsurf_tie_CNS_, bot-part-1.topsurf
** Constraint: Constraint-2
*Tie, name=Constraint-2, adjust=yes
fnm-1_topsurf_tie_CNS_, top-part-1.botsurf
*End Assembly
** 
** MATERIALS
** 
*Material, name=Material-1
*Elastic, type=ENGINEERING CONSTANTS
161000.,11380.,11380.,  0.32,  0.32,  0.45, 5200., 5200.
 3900.,
** 
** BOUNDARY CONDITIONS
** 
** Name: fixleft Type: Displacement/Rotation
*Boundary
fixleft, 1, 1
fixleft, 2, 2
fixleft, 3, 3
** Name: fixload Type: Displacement/Rotation
*Boundary
load, 1, 1
load, 2, 2
** Name: fixright Type: Displacement/Rotation
*Boundary
fixright, 1, 1
fixright, 2, 2
fixright, 3, 3
** Name: fixright-fnm Type: Displacement/Rotation
*Boundary
fnm-1.right_tie, 1, 1
fnm-1.right_tie, 2, 2
fnm-1.right_tie, 3, 3
** ----------------------------------------------------------------
** 
** STEP: loading
** 
*Step, name=loading, inc=10000
*Static
0.001, 3., 0.0001, 0.001
** 
** BOUNDARY CONDITIONS
** 
** Name: load Type: Velocity/Angular velocity
*Boundary, type=VELOCITY
load, 3, 3, 1.
** 
** OUTPUT REQUESTS
** 
*Restart, write, frequency=0
** 
** FIELD OUTPUT: F-Output-1
** 
*Output, field
*Node Output
RF, U
*Element Output, directions=YES
EE, S
** 
** FIELD OUTPUT: F-Output-3
** 
*Element Output, elset=top-part-1.CompositeLayup-1-1, directions=YES
1, 2, 3, 4, 5, 6, 7, 8, 9, 10, 11, 12, 13, 14, 15, 16
EE, S
*Element Output, elset=top-part-1.CompositeLayup-1-1, directions=YES
17, 18, 19, 20, 21, 22, 23
EE, S
** 
** FIELD OUTPUT: F-Output-2
** 
*Element Output, elset=bot-part-1.CompositeLayup-1-1, directions=YES
1, 2, 3, 4, 5, 6, 7, 8, 9, 10, 11, 12, 13, 14, 15, 16
EE, S
*Element Output, elset=bot-part-1.CompositeLayup-1-1, directions=YES
17, 18, 19, 20, 21, 22, 23, 24, 25, 26, 27
EE, S
** 
** HISTORY OUTPUT: H-Output-1
** 
*Output, history, variable=PRESELECT
*End Step
