*Heading
** Job name: Pernice2-test Model name: Pernice2-test
** Generated by: Abaqus/CAE 6.12-2
*Preprint, echo=NO, model=NO, history=NO, contact=NO
**
*Part, name=bot-part
*Node
      1,          53.,           0.,           0.
      2,          53.,           0.,    3.4289999
      3,           0.,           0.,    3.4289999
      4,           0.,           0.,           0.
      5,          53.,   12.6999998,    3.4289999
      6,           0.,   12.6999998,    3.4289999
      7,           0.,   12.6999998,           0.
      8,          53.,   12.6999998,           0.
      9,   114.300003,   12.6999998,    3.4289999
     10,   114.300003,           0.,    3.4289999
     11,   114.300003,           0.,           0.
     12,   114.300003,   12.6999998,           0.
     13,          52.,           0.,    3.4289999
     14,   50.9157753,           0.,    3.4289999
     15,   49.7402344,           0.,    3.4289999
     16,    48.465683,           0.,    3.4289999
     17,   47.0837822,           0.,    3.4289999
     18,    45.585495,           0.,    3.4289999
     19,     43.96101,           0.,    3.4289999
     20,   42.1997108,           0.,    3.4289999
** ... 2304 like lines cut
*Element, type=C3D8R
  1, 116, 405,  52,   1, 129, 645,  13,   2
  2, 405, 406,  51,  52, 645, 646,  14,  13
  3, 406, 407,  50,  51, 646, 647,  15,  14
  4, 407, 408,  49,  50, 647, 648,  16,  15
  5, 408, 409,  48,  49, 648, 649,  17,  16
  6, 409, 410,  47,  48, 649, 650,  18,  17
  7, 410, 411,  46,  47, 650, 651,  19,  18
  8, 411, 412,  45,  46, 651, 652,  20,  19
  9, 412, 413,  44,  45, 652, 653,  21,  20
 10, 413, 414,  43,  44, 653, 654,  22,  21
 11, 414, 415,  42,  43, 654, 655,  23,  22
 12, 415, 416,  41,  42, 655, 656,  24,  23
 13, 416, 417,  40,  41, 656, 657,  25,  24
 14, 417, 418,  39,  40, 657, 658,  26,  25
 15, 418, 419,  38,  39, 658, 659,  27,  26
 16, 419, 420,  37,  38, 659, 660,  28,  27
 17, 420, 421,  36,  37, 660, 661,  29,  28
 18, 421, 422,  35,  36, 661, 662,  30,  29
 19, 422, 423,  34,  35, 662, 663,  31,  30
 20, 423, 424,  33,  34, 663, 664,  32,  31
** ... 1046 like lines cut
*Nset, nset=_PickedSet37, internal, generate
    1,  2324,     1
*Elset, elset=_PickedSet37, internal, generate
    1,  1066,     1
*Elset, elset=_topsurf_S2, internal, generate
    1,  1066,     1
*Surface, type=ELEMENT, name=topsurf
_topsurf_S2, S2
*Orientation, name=Ori-1
          1.,           0.,           0.,           0.,           1.,           0.
3, 0.
** Region: (CompositeLayup-1-1: Generated From Layup)
*Elset, elset=CompositeLayup-1-1, generate
    1,  1066,     1
** Section: CompositeLayup-1-1
*Solid Section, elset=CompositeLayup-1-1, composite, orientation=Ori-1, stack direction=3, layup=CompositeLayup-1
0.037037, 1, Material-1, 60., Ply-1
0.037037, 1, Material-1, 0., Ply-2
0.037037, 1, Material-1, 60., Ply-3
0.037037, 1, Material-1, 60., Ply-4
0.037037, 1, Material-1, 60., Ply-5
0.037037, 1, Material-1, -60., Ply-6
0.037037, 1, Material-1, -60., Ply-7
0.037037, 1, Material-1, -60., Ply-8
0.037037, 1, Material-1, -60., Ply-9
0.037037, 1, Material-1, -30., Ply-10
0.037037, 1, Material-1, -60., Ply-11
0.037037, 1, Material-1, -30., Ply-12
0.037037, 1, Material-1, 90., Ply-13
0.037037, 1, Material-1, -30., Ply-14
0.037037, 1, Material-1, 30., Ply-15
0.037037, 1, Material-1, 90., Ply-16
0.037037, 1, Material-1, 30., Ply-17
0.037037, 1, Material-1, 60., Ply-18
0.037037, 1, Material-1, 30., Ply-19
0.037037, 1, Material-1, 60., Ply-20
** ... 7 like lines cut
*End Part
*Part, name=top-part
*Node
      1,          53.,           0.,           0.
      2,          53.,           0.,        2.921
      3,           0.,           0.,        2.921
      4,           0.,           0.,           0.
      5,          53.,   12.6999998,        2.921
      6,           0.,   12.6999998,        2.921
      7,           0.,   12.6999998,           0.
      8,          53.,   12.6999998,           0.
      9,   114.300003,   12.6999998,        2.921
     10,   114.300003,           0.,        2.921
     11,   114.300003,           0.,           0.
     12,   114.300003,   12.6999998,           0.
     13,          52.,           0.,        2.921
     14,   50.9157753,           0.,        2.921
     15,   49.7402344,           0.,        2.921
     16,    48.465683,           0.,        2.921
     17,   47.0837822,           0.,        2.921
     18,    45.585495,           0.,        2.921
     19,     43.96101,           0.,        2.921
     20,   42.1997108,           0.,        2.921
** ... 2304 like lines cut
*Element, type=C3D8R
  1, 116, 405,  52,   1, 129, 645,  13,   2
  2, 405, 406,  51,  52, 645, 646,  14,  13
  3, 406, 407,  50,  51, 646, 647,  15,  14
  4, 407, 408,  49,  50, 647, 648,  16,  15
  5, 408, 409,  48,  49, 648, 649,  17,  16
  6, 409, 410,  47,  48, 649, 650,  18,  17
  7, 410, 411,  46,  47, 650, 651,  19,  18
  8, 411, 412,  45,  46, 651, 652,  20,  19
  9, 412, 413,  44,  45, 652, 653,  21,  20
 10, 413, 414,  43,  44, 653, 654,  22,  21
 11, 414, 415,  42,  43, 654, 655,  23,  22
 12, 415, 416,  41,  42, 655, 656,  24,  23
 13, 416, 417,  40,  41, 656, 657,  25,  24
 14, 417, 418,  39,  40, 657, 658,  26,  25
 15, 418, 419,  38,  39, 658, 659,  27,  26
 16, 419, 420,  37,  38, 659, 660,  28,  27
 17, 420, 421,  36,  37, 660, 661,  29,  28
 18, 421, 422,  35,  36, 661, 662,  30,  29
 19, 422, 423,  34,  35, 662, 663,  31,  30
 20, 423, 424,  33,  34, 663, 664,  32,  31
** ... 1046 like lines cut
*Nset, nset=_PickedSet36, internal, generate
    1,  2324,     1
*Elset, elset=_PickedSet36, internal, generate
    1,  1066,     1
*Elset, elset=_botsurf_S1, internal, generate
    1,  1066,     1
*Surface, type=ELEMENT, name=botsurf
_botsurf_S1, S1
*Orientation, name=Ori-1
          1.,           0.,           0.,           0.,           1.,           0.
3, 0.
** Region: (CompositeLayup-1-1: Generated From Layup)
*Elset, elset=CompositeLayup-1-1, generate
    1,  1066,     1
** Section: CompositeLayup-1-1
*Solid Section, elset=CompositeLayup-1-1, composite, orientation=Ori-1, stack direction=3, layup=CompositeLayup-1
0.0434783, 1, Material-1, -60., Ply-1
0.0434783, 1, Material-1, -60., Ply-2
0.0434783, 1, Material-1, -60., Ply-3
0.0434783, 1, Material-1, -60., Ply-4
0.0434783, 1, Material-1, -30., Ply-5
0.0434783, 1, Material-1, -60., Ply-6
0.0434783, 1, Material-1, -30., Ply-7
0.0434783, 1, Material-1, 90., Ply-8
0.0434783, 1, Material-1, -30., Ply-9
0.0434783, 1, Material-1, 30., Ply-10
0.0434783, 1, Material-1, 90., Ply-11
0.0434783, 1, Material-1, 30., Ply-12
0.0434783, 1, Material-1, 60., Ply-13
0.0434783, 1, Material-1, 30., Ply-14
0.0434783, 1, Material-1, 60., Ply-15
0.0434783, 1, Material-1, 60., Ply-16
0.0434783, 1, Material-1, 60., Ply-17
0.0434783, 1, Material-1, 60., Ply-18
0.0434783, 1, Material-1, 0., Ply-19
0.0434783, 1, Material-1, -60., Ply-20
0.0434783, 1, Material-1, -60., Ply-21
0.0434783, 1, Material-1, -60., Ply-22
0.0434783, 1, Material-1, -60., Ply-23
*End Part
*Part, name=fnm
*NODE,INPUT=uel_nodes.inp    
*USER ELEMENT, TYPE=U308, NODES=88, COORDINATES=3, PROPERTIES=1, VARIABLES=1
1,2,3
*ELEMENT, TYPE=U308, ELSET=fnm, INPUT=uel_elems.inp 
*UEL PROPERTY, ELSET=fnm
1
*Nset, nset=botsurf
1,4,7,8,11,12,14,16,17,18,22,23,25,27,
30
*Nset, nset=topsurf
238,239,241,242,245,246,249,251,255,256,257,260,262,264,
265
*Nset, nset=right
9,10,11,12,21,22,127,128,129,130,139,140,245,246,
247,248,257,258
*End Part
*Assembly, name=Assembly
**  
*Instance, name=bot-part-1, part=bot-part
*End Instance
**  
*Instance, name=fnm-1, part=fnm
          0.,           0.,        3.429
*End Instance
**  
*Instance, name=top-part-1, part=top-part
          0.,           0.,        4.191
*End Instance
**  
*Nset, nset=fixleft, instance=bot-part-1
   3,   4,   6,   7,  93,  94,  95,  96,  97,  98,  99, 100, 101, 102, 103, 104
 117, 118, 119, 120, 121, 122, 123, 124, 125, 126, 127, 128
*Elset, elset=fixleft, instance=bot-part-1, generate
  21,  273,   21
*Nset, nset=load, instance=top-part-1
   2,   5, 129, 130, 131, 132, 133, 134, 135, 136, 137, 138, 139, 140
*Elset, elset=load, instance=top-part-1
    1,   22,   43,   64,   85,  106,  127,  148,  169,  190,  211,  232,  253, 1054, 1055, 1056
 1057, 1058, 1059, 1060, 1061, 1062, 1063, 1064, 1065, 1066
*Nset, nset=fixright, instance=bot-part-1
   9,  10,  11,  12, 141, 142, 143, 144, 145, 146, 147, 148, 149, 150, 151, 152
 153, 154, 155, 156, 157, 158, 159, 160, 161, 162, 163, 164
*Nset, nset=fixright, instance=top-part-1
   9,  10,  11,  12, 141, 142, 143, 144, 145, 146, 147, 148, 149, 150, 151, 152
 153, 154, 155, 156, 157, 158, 159, 160, 161, 162, 163, 164
*Elset, elset=fixright, instance=bot-part-1, generate
 274,  286,    1
*Elset, elset=fixright, instance=top-part-1, generate
 274,  286,    1
*Surface, type=NODE, name=fnm-1_botsurf_CNS_, internal
fnm-1.botsurf, 1.
*Surface, type=NODE, name=fnm-1_topsurf_CNS_, internal
fnm-1.topsurf, 1.
** Constraint: Constraint-1
*Tie, name=Constraint-1, adjust=yes
fnm-1_botsurf_CNS_, bot-part-1.topsurf
** Constraint: Constraint-2
*Tie, name=Constraint-2, adjust=yes
fnm-1_topsurf_CNS_, top-part-1.botsurf
*End Assembly
*Material, name=Material-1
*Elastic, type=ENGINEERING CONSTANTS
161000.,11400.,11400.,  0.32,  0.32, 0.436, 5170., 5170.
 3980.,
** 
*Boundary
fixleft, 1, 1
fixleft, 2, 2
fixleft, 3, 3
*Boundary
fixright, 1, 1
fixright, 2, 2
fixright, 3, 3
*Boundary
fnm-1.right, 1, 1
fnm-1.right, 2, 2
fnm-1.right, 3, 3
*Step, name=loading, inc=10000
*Static
0.001, 1., 1e-05, 0.001
** 
** BOUNDARY CONDITIONS
** 
** Name: load Type: Velocity/Angular velocity
*Boundary, type=VELOCITY
load, 3, 3, 1.
** 
*Controls, reset
*Controls, parameters=time incrementation
3200, 4000, , 6000, 4800, 50, , 125, , , 
**
** OUTPUT REQUESTS
** 
*Restart, write, frequency=0
** 
** FIELD OUTPUT: F-Output-1
** 
*Output, field
*Node Output
RF, U
*Element Output, directions=YES
EE, S
** 
** HISTORY OUTPUT: H-Output-1
** 
*Output, history, variable=PRESELECT
*End Step
