*Heading
** Job name: DCB-mesh7-2D Model name: DCB-mesh7-2D
** Generated by: Abaqus/CAE 6.12-2
*Preprint, echo=NO, model=NO, history=NO, contact=NO
**
** PARTS
**
*Part, name=bot
*Node
      1,         50.5,          25.,   1.39999998
      2,         50.5,          25.,           0.
      3,         30.5,          25.,           0.
      4,         30.5,          25.,   1.39999998
      5,         50.5,           0.,           0.
      6,         30.5,           0.,           0.
      7,         30.5,           0.,   1.39999998
      8,         50.5,           0.,   1.39999998
      9,           0.,          25.,           0.
     10,           0.,          25.,   1.39999998
     11,           0.,           0.,           0.
     12,           0.,           0.,   1.39999998
     13,         150.,          25.,   1.39999998
     14,         150.,           0.,   1.39999998
     15,         150.,           0.,           0.
     16,         150.,          25.,           0.
     17,   50.4000015,          25.,           0.
     18,   50.2999992,          25.,           0.
     19,   50.2000008,          25.,           0.
     20,   50.0999985,          25.,           0.
** ... 1408 like lines cut
*Element, type=SC8R
  1, 613,   5,   2,  17, 614,   8,   1, 414
  2, 612, 613,  17,  18, 615, 614, 414, 413
  3, 611, 612,  18,  19, 616, 615, 413, 412
  4, 610, 611,  19,  20, 617, 616, 412, 411
  5, 609, 610,  20,  21, 618, 617, 411, 410
  6, 608, 609,  21,  22, 619, 618, 410, 409
  7, 607, 608,  22,  23, 620, 619, 409, 408
  8, 606, 607,  23,  24, 621, 620, 408, 407
  9, 605, 606,  24,  25, 622, 621, 407, 406
 10, 604, 605,  25,  26, 623, 622, 406, 405
 11, 603, 604,  26,  27, 624, 623, 405, 404
 12, 602, 603,  27,  28, 625, 624, 404, 403
 13, 601, 602,  28,  29, 626, 625, 403, 402
 14, 600, 601,  29,  30, 627, 626, 402, 401
 15, 599, 600,  30,  31, 628, 627, 401, 400
 16, 598, 599,  31,  32, 629, 628, 400, 399
 17, 597, 598,  32,  33, 630, 629, 399, 398
 18, 596, 597,  33,  34, 631, 630, 398, 397
 19, 595, 596,  34,  35, 632, 631, 397, 396
 20, 594, 595,  35,  36, 633, 632, 396, 395
** ... 336 like lines cut
*Nset, nset=_PickedSet3, internal, generate
    1,  1428,     1
*Elset, elset=_PickedSet3, internal, generate
   1,  356,    1
*Elset, elset=_topsurf_S2, internal, generate
   1,  356,    1
*Surface, type=ELEMENT, name=topsurf
_topsurf_S2, S2
*Orientation, name=Ori-1
          1.,           0.,           0.,           0.,           1.,           0.
3, 0.
** Region: (CompositeLayup-1-1: Generated From Layup)
*Elset, elset=CompositeLayup-1-1, generate
   1,  356,    1
** Section: CompositeLayup-1-1
*Shell Section, elset=CompositeLayup-1-1, composite, orientation=Ori-1, stack direction=3, layup=CompositeLayup-1
1., 3, Material-1, 0., Ply-1
*End Part
**  
*Part, name=fnm
*Node
      1,         50.5,          25.,  0.200000003
      2,         50.5,          25.,           0.
      3,         30.5,          25.,           0.
      4,         30.5,          25.,  0.200000003
      5,         50.5,           0.,           0.
      6,         30.5,           0.,           0.
      7,         30.5,           0.,  0.200000003
      8,         50.5,           0.,  0.200000003
      9,           0.,          25.,           0.
     10,           0.,          25.,  0.200000003
     11,           0.,           0.,           0.
     12,           0.,           0.,  0.200000003
     13,         150.,          25.,  0.200000003
     14,         150.,           0.,  0.200000003
     15,         150.,           0.,           0.
     16,         150.,          25.,           0.
     17,   50.4000015,          25.,           0.
     18,   50.2999992,          25.,           0.
     19,   50.2000008,          25.,           0.
     20,   50.0999985,          25.,           0.
** ... 1408 like lines cut
*Element, type=C3D8R
  1, 613,   5,   2,  17, 614,   8,   1, 414
  2, 612, 613,  17,  18, 615, 614, 414, 413
  3, 611, 612,  18,  19, 616, 615, 413, 412
  4, 610, 611,  19,  20, 617, 616, 412, 411
  5, 609, 610,  20,  21, 618, 617, 411, 410
  6, 608, 609,  21,  22, 619, 618, 410, 409
  7, 607, 608,  22,  23, 620, 619, 409, 408
  8, 606, 607,  23,  24, 621, 620, 408, 407
  9, 605, 606,  24,  25, 622, 621, 407, 406
 10, 604, 605,  25,  26, 623, 622, 406, 405
 11, 603, 604,  26,  27, 624, 623, 405, 404
 12, 602, 603,  27,  28, 625, 624, 404, 403
 13, 601, 602,  28,  29, 626, 625, 403, 402
 14, 600, 601,  29,  30, 627, 626, 402, 401
 15, 599, 600,  30,  31, 628, 627, 401, 400
 16, 598, 599,  31,  32, 629, 628, 400, 399
 17, 597, 598,  32,  33, 630, 629, 399, 398
 18, 596, 597,  33,  34, 631, 630, 398, 397
 19, 595, 596,  34,  35, 632, 631, 397, 396
 20, 594, 595,  35,  36, 633, 632, 396, 395
** ... 336 like lines cut
*Elset, elset=predelam, generate
 201,  278,    1
*Nset, nset=topsurf_tie
    1,    4,    7,    8,   10,   12,   13,   14,  216,  217,  218,  219,  220,  221,  222,  223
  224,  225,  226,  227,  228,  229,  230,  231,  232,  233,  234,  235,  236,  237,  238,  239
  240,  241,  242,  243,  244,  245,  246,  247,  248,  249,  250,  251,  252,  253,  254,  255
  256,  257,  258,  259,  260,  261,  262,  263,  264,  265,  266,  267,  268,  269,  270,  271
  272,  273,  274,  275,  276,  277,  278,  279,  280,  281,  282,  283,  284,  285,  286,  287
  288,  289,  290,  291,  292,  293,  294,  295,  296,  297,  298,  299,  300,  301,  302,  303
  304,  305,  306,  307,  308,  309,  310,  311,  312,  313,  314,  315,  316,  317,  318,  319
  320,  321,  322,  323,  324,  325,  326,  327,  328,  329,  330,  331,  332,  333,  334,  335
  336,  337,  338,  339,  340,  341,  342,  343,  344,  345,  346,  347,  348,  349,  350,  351
  352,  353,  354,  355,  356,  357,  358,  359,  360,  361,  362,  363,  364,  365,  366,  367
  368,  369,  370,  371,  372,  373,  374,  375,  376,  377,  378,  379,  380,  381,  382,  383
  384,  385,  386,  387,  388,  389,  390,  391,  392,  393,  394,  395,  396,  397,  398,  399
  400,  401,  402,  403,  404,  405,  406,  407,  408,  409,  410,  411,  412,  413,  414,  614
  615,  616,  617,  618,  619,  620,  621,  622,  623,  624,  625,  626,  627,  628,  629,  630
  631,  632,  633,  634,  635,  636,  637,  638,  639,  640,  641,  642,  643,  644,  645,  646
  647,  648,  649,  650,  651,  652,  653,  654,  655,  656,  657,  658,  659,  660,  661,  662
  663,  664,  665,  666,  667,  668,  669,  670,  671,  672,  673,  674,  675,  676,  677,  678
  679,  680,  681,  682,  683,  684,  685,  686,  687,  688,  689,  690,  691,  692,  693,  694
  695,  696,  697,  698,  699,  700,  701,  702,  703,  704,  705,  706,  707,  708,  709,  710
  711,  712,  713,  714,  715,  716,  717,  718,  719,  720,  721,  722,  723,  724,  725,  726
** ... 25 like lines cut
*Nset, nset=botsurf_tie
    2,    3,    5,    6,    9,   11,   15,   16,   17,   18,   19,   20,   21,   22,   23,   24
   25,   26,   27,   28,   29,   30,   31,   32,   33,   34,   35,   36,   37,   38,   39,   40
   41,   42,   43,   44,   45,   46,   47,   48,   49,   50,   51,   52,   53,   54,   55,   56
   57,   58,   59,   60,   61,   62,   63,   64,   65,   66,   67,   68,   69,   70,   71,   72
   73,   74,   75,   76,   77,   78,   79,   80,   81,   82,   83,   84,   85,   86,   87,   88
   89,   90,   91,   92,   93,   94,   95,   96,   97,   98,   99,  100,  101,  102,  103,  104
  105,  106,  107,  108,  109,  110,  111,  112,  113,  114,  115,  116,  117,  118,  119,  120
  121,  122,  123,  124,  125,  126,  127,  128,  129,  130,  131,  132,  133,  134,  135,  136
  137,  138,  139,  140,  141,  142,  143,  144,  145,  146,  147,  148,  149,  150,  151,  152
  153,  154,  155,  156,  157,  158,  159,  160,  161,  162,  163,  164,  165,  166,  167,  168
  169,  170,  171,  172,  173,  174,  175,  176,  177,  178,  179,  180,  181,  182,  183,  184
  185,  186,  187,  188,  189,  190,  191,  192,  193,  194,  195,  196,  197,  198,  199,  200
  201,  202,  203,  204,  205,  206,  207,  208,  209,  210,  211,  212,  213,  214,  215,  415
  416,  417,  418,  419,  420,  421,  422,  423,  424,  425,  426,  427,  428,  429,  430,  431
  432,  433,  434,  435,  436,  437,  438,  439,  440,  441,  442,  443,  444,  445,  446,  447
  448,  449,  450,  451,  452,  453,  454,  455,  456,  457,  458,  459,  460,  461,  462,  463
  464,  465,  466,  467,  468,  469,  470,  471,  472,  473,  474,  475,  476,  477,  478,  479
  480,  481,  482,  483,  484,  485,  486,  487,  488,  489,  490,  491,  492,  493,  494,  495
  496,  497,  498,  499,  500,  501,  502,  503,  504,  505,  506,  507,  508,  509,  510,  511
  512,  513,  514,  515,  516,  517,  518,  519,  520,  521,  522,  523,  524,  525,  526,  527
** ... 25 like lines cut
*End Part
**  
*Part, name=top
*Node
      1,         50.5,          25.,   1.39999998
      2,         50.5,          25.,           0.
      3,         30.5,          25.,           0.
      4,         30.5,          25.,   1.39999998
      5,         50.5,           0.,           0.
      6,         30.5,           0.,           0.
      7,         30.5,           0.,   1.39999998
      8,         50.5,           0.,   1.39999998
      9,           0.,          25.,           0.
     10,           0.,          25.,   1.39999998
     11,           0.,           0.,           0.
     12,           0.,           0.,   1.39999998
     13,         150.,          25.,   1.39999998
     14,         150.,           0.,   1.39999998
     15,         150.,           0.,           0.
     16,         150.,          25.,           0.
     17,   50.4000015,          25.,           0.
     18,   50.2999992,          25.,           0.
     19,   50.2000008,          25.,           0.
     20,   50.0999985,          25.,           0.
** ... 1408 like lines cut
*Element, type=SC8R
  1, 613,   5,   2,  17, 614,   8,   1, 414
  2, 612, 613,  17,  18, 615, 614, 414, 413
  3, 611, 612,  18,  19, 616, 615, 413, 412
  4, 610, 611,  19,  20, 617, 616, 412, 411
  5, 609, 610,  20,  21, 618, 617, 411, 410
  6, 608, 609,  21,  22, 619, 618, 410, 409
  7, 607, 608,  22,  23, 620, 619, 409, 408
  8, 606, 607,  23,  24, 621, 620, 408, 407
  9, 605, 606,  24,  25, 622, 621, 407, 406
 10, 604, 605,  25,  26, 623, 622, 406, 405
 11, 603, 604,  26,  27, 624, 623, 405, 404
 12, 602, 603,  27,  28, 625, 624, 404, 403
 13, 601, 602,  28,  29, 626, 625, 403, 402
 14, 600, 601,  29,  30, 627, 626, 402, 401
 15, 599, 600,  30,  31, 628, 627, 401, 400
 16, 598, 599,  31,  32, 629, 628, 400, 399
 17, 597, 598,  32,  33, 630, 629, 399, 398
 18, 596, 597,  33,  34, 631, 630, 398, 397
 19, 595, 596,  34,  35, 632, 631, 397, 396
 20, 594, 595,  35,  36, 633, 632, 396, 395
** ... 336 like lines cut
*Nset, nset=_PickedSet3, internal, generate
    1,  1428,     1
*Elset, elset=_PickedSet3, internal, generate
   1,  356,    1
*Elset, elset=_botsurf_S1, internal, generate
   1,  356,    1
*Surface, type=ELEMENT, name=botsurf
_botsurf_S1, S1
*Orientation, name=Ori-1
          1.,           0.,           0.,           0.,           1.,           0.
3, 0.
** Region: (CompositeLayup-1-1: Generated From Layup)
*Elset, elset=CompositeLayup-1-1, generate
   1,  356,    1
** Section: CompositeLayup-1-1
*Shell Section, elset=CompositeLayup-1-1, composite, orientation=Ori-1, stack direction=3, layup=CompositeLayup-1
1., 3, Material-1, 0., Ply-1
*End Part
**  
**
** ASSEMBLY
**
*Assembly, name=Assembly
**  
*Instance, name=bot-1, part=bot
*End Instance
**  
*Instance, name=fnm-1, part=fnm
          0.,           0.,          1.4
*End Instance
**  
*Instance, name=top-1, part=top
          0.,           0.,          1.6
*End Instance
**  
*Nset, nset=load, instance=top-1
 10, 12
*Elset, elset=load, instance=top-1
 278,
*Nset, nset=fix, instance=bot-1
  9, 11
*Elset, elset=fix, instance=bot-1
 278,
*Surface, type=NODE, name=fnm-1_botsurf_tie_CNS_, internal
fnm-1.botsurf_tie, 1.
*Surface, type=NODE, name=fnm-1_topsurf_tie_CNS_, internal
fnm-1.topsurf_tie, 1.
** Constraint: Constraint-1
*Tie, name=Constraint-1, adjust=yes
fnm-1_botsurf_tie_CNS_, bot-1.topsurf
** Constraint: Constraint-2
*Tie, name=Constraint-2, adjust=yes
fnm-1_topsurf_tie_CNS_, top-1.botsurf
*End Assembly
** 
** MATERIALS
** 
*Material, name=Material-1
*Elastic, type=ENGINEERING CONSTANTS
139400.,10160.,10160.,   0.3,   0.3, 0.436, 4600., 4600.
 3540.,
** 
** BOUNDARY CONDITIONS
** 
** Name: fix-bot Type: Displacement/Rotation
*Boundary
fix, 1, 1
fix, 2, 2
fix, 3, 3
** Name: fix-top Type: Displacement/Rotation
*Boundary
load, 1, 1
load, 2, 2
** ----------------------------------------------------------------
** 
** STEP: loading
** 
*Step, name=loading, inc=10000
*Static
0.002, 4., 0.0001, 0.002
** 
** BOUNDARY CONDITIONS
** 
** Name: load Type: Velocity/Angular velocity
*Boundary, type=VELOCITY
load, 3, 3, 1.
** 
** OUTPUT REQUESTS
** 
*Restart, write, frequency=0
** 
** FIELD OUTPUT: F-Output-1
** 
*Output, field
*Node Output
RF, U
*Element Output, directions=YES
EE, S
** 
** HISTORY OUTPUT: H-Output-1
** 
*Output, history, variable=PRESELECT
*End Step
