*Heading
** Job name: DCB-mesh4-2D Model name: DCB-mesh4-2D
** Generated by: Abaqus/CAE 6.12-2
*Preprint, echo=NO, model=NO, history=NO, contact=NO
**
** PARTS
**
*Part, name=bot
*Node
      1,         150.,          25.,   1.39999998
      2,         150.,           0.,   1.39999998
      3,         150.,          25.,           0.
      4,         150.,           0.,           0.
      5,         149.,          25.,   1.39999998
      6,         149.,           0.,   1.39999998
      7,         149.,          25.,           0.
      8,         149.,           0.,           0.
      9,         148.,          25.,   1.39999998
     10,         148.,           0.,   1.39999998
     11,         148.,          25.,           0.
     12,         148.,           0.,           0.
     13,         147.,          25.,   1.39999998
     14,         147.,           0.,   1.39999998
     15,         147.,          25.,           0.
     16,         147.,           0.,           0.
     17,         146.,          25.,   1.39999998
     18,         146.,           0.,   1.39999998
     19,         146.,          25.,           0.
     20,         146.,           0.,           0.
** ... 584 like lines cut
*Element, type=SC8R
  1,   7,   8,   4,   3,   5,   6,   2,   1
  2,  11,  12,   8,   7,   9,  10,   6,   5
  3,  15,  16,  12,  11,  13,  14,  10,   9
  4,  19,  20,  16,  15,  17,  18,  14,  13
  5,  23,  24,  20,  19,  21,  22,  18,  17
  6,  27,  28,  24,  23,  25,  26,  22,  21
  7,  31,  32,  28,  27,  29,  30,  26,  25
  8,  35,  36,  32,  31,  33,  34,  30,  29
  9,  39,  40,  36,  35,  37,  38,  34,  33
 10,  43,  44,  40,  39,  41,  42,  38,  37
 11,  47,  48,  44,  43,  45,  46,  42,  41
 12,  51,  52,  48,  47,  49,  50,  46,  45
 13,  55,  56,  52,  51,  53,  54,  50,  49
 14,  59,  60,  56,  55,  57,  58,  54,  53
 15,  63,  64,  60,  59,  61,  62,  58,  57
 16,  67,  68,  64,  63,  65,  66,  62,  61
 17,  71,  72,  68,  67,  69,  70,  66,  65
 18,  75,  76,  72,  71,  73,  74,  70,  69
 19,  79,  80,  76,  75,  77,  78,  74,  73
 20,  83,  84,  80,  79,  81,  82,  78,  77
** ... 130 like lines cut
*Nset, nset=_PickedSet3, internal, generate
   1,  604,    1
*Elset, elset=_PickedSet3, internal, generate
   1,  150,    1
*Elset, elset=_topsurf_S2, internal, generate
   1,  150,    1
*Surface, type=ELEMENT, name=topsurf
_topsurf_S2, S2
*Orientation, name=Ori-1
          1.,           0.,           0.,           0.,           1.,           0.
3, 0.
** Region: (CompositeLayup-1-1: Generated From Layup)
*Elset, elset=CompositeLayup-1-1, generate
   1,  150,    1
** Section: CompositeLayup-1-1
*Shell Section, elset=CompositeLayup-1-1, composite, orientation=Ori-1, stack direction=3, layup=CompositeLayup-1
1., 3, Material-1, 0., Ply-1
*End Part
**  
*Part, name=fnm
*Node
      1,         50.5,          25.,  0.200000003
      2,         50.5,          25.,           0.
      3,         30.5,          25.,           0.
      4,         30.5,          25.,  0.200000003
      5,         50.5,           0.,           0.
      6,         30.5,           0.,           0.
      7,         30.5,           0.,  0.200000003
      8,         50.5,           0.,  0.200000003
      9,           0.,          25.,           0.
     10,           0.,          25.,  0.200000003
     11,           0.,           0.,           0.
     12,           0.,           0.,  0.200000003
     13,         150.,          25.,  0.200000003
     14,         150.,           0.,  0.200000003
     15,         150.,           0.,           0.
     16,         150.,          25.,           0.
     17,          50.,          25.,           0.
     18,         49.5,          25.,           0.
     19,          49.,          25.,           0.
     20,         48.5,          25.,           0.
** ... 432 like lines cut
*Element, type=C3D8R
 1, 133,   5,   2,  17, 134,   8,   1,  94
 2, 132, 133,  17,  18, 135, 134,  94,  93
 3, 131, 132,  18,  19, 136, 135,  93,  92
 4, 130, 131,  19,  20, 137, 136,  92,  91
 5, 129, 130,  20,  21, 138, 137,  91,  90
 6, 128, 129,  21,  22, 139, 138,  90,  89
 7, 127, 128,  22,  23, 140, 139,  89,  88
 8, 126, 127,  23,  24, 141, 140,  88,  87
 9, 125, 126,  24,  25, 142, 141,  87,  86
10, 124, 125,  25,  26, 143, 142,  86,  85
11, 123, 124,  26,  27, 144, 143,  85,  84
12, 122, 123,  27,  28, 145, 144,  84,  83
13, 121, 122,  28,  29, 146, 145,  83,  82
14, 120, 121,  29,  30, 147, 146,  82,  81
15, 119, 120,  30,  31, 148, 147,  81,  80
16, 118, 119,  31,  32, 149, 148,  80,  79
17, 117, 118,  32,  33, 150, 149,  79,  78
18, 116, 117,  33,  34, 151, 150,  78,  77
19, 115, 116,  34,  35, 152, 151,  77,  76
20, 114, 115,  35,  36, 153, 152,  76,  75
** ... 92 like lines cut
*Elset, elset=predelam, generate
 41,  62,   1
*Nset, nset=topsurf_tie
   1,   4,   7,   8,  10,  12,  13,  14,  56,  57,  58,  59,  60,  61,  62,  63
  64,  65,  66,  67,  68,  69,  70,  71,  72,  73,  74,  75,  76,  77,  78,  79
  80,  81,  82,  83,  84,  85,  86,  87,  88,  89,  90,  91,  92,  93,  94, 134
 135, 136, 137, 138, 139, 140, 141, 142, 143, 144, 145, 146, 147, 148, 149, 150
 151, 152, 153, 154, 155, 156, 157, 158, 159, 160, 161, 162, 163, 164, 165, 166
 167, 168, 169, 170, 171, 172, 194, 195, 196, 197, 198, 199, 200, 201, 202, 203
 204, 205, 206, 207, 208, 209, 210, 211, 212, 213, 214, 236, 237, 238, 239, 240
 241, 242, 243, 244, 245, 246, 247, 248, 249, 250, 251, 252, 253, 254, 255, 256
 306, 307, 308, 309, 310, 311, 312, 313, 314, 315, 316, 317, 318, 319, 320, 321
 322, 323, 324, 325, 326, 327, 328, 329, 330, 331, 332, 333, 334, 335, 336, 337
 338, 339, 340, 341, 342, 343, 344, 345, 346, 347, 348, 349, 350, 351, 352, 353
 354, 404, 405, 406, 407, 408, 409, 410, 411, 412, 413, 414, 415, 416, 417, 418
 419, 420, 421, 422, 423, 424, 425, 426, 427, 428, 429, 430, 431, 432, 433, 434
 435, 436, 437, 438, 439, 440, 441, 442, 443, 444, 445, 446, 447, 448, 449, 450
 451, 452
*Nset, nset=botsurf_tie
   2,   3,   5,   6,   9,  11,  15,  16,  17,  18,  19,  20,  21,  22,  23,  24
  25,  26,  27,  28,  29,  30,  31,  32,  33,  34,  35,  36,  37,  38,  39,  40
  41,  42,  43,  44,  45,  46,  47,  48,  49,  50,  51,  52,  53,  54,  55,  95
  96,  97,  98,  99, 100, 101, 102, 103, 104, 105, 106, 107, 108, 109, 110, 111
 112, 113, 114, 115, 116, 117, 118, 119, 120, 121, 122, 123, 124, 125, 126, 127
 128, 129, 130, 131, 132, 133, 173, 174, 175, 176, 177, 178, 179, 180, 181, 182
 183, 184, 185, 186, 187, 188, 189, 190, 191, 192, 193, 215, 216, 217, 218, 219
 220, 221, 222, 223, 224, 225, 226, 227, 228, 229, 230, 231, 232, 233, 234, 235
 257, 258, 259, 260, 261, 262, 263, 264, 265, 266, 267, 268, 269, 270, 271, 272
 273, 274, 275, 276, 277, 278, 279, 280, 281, 282, 283, 284, 285, 286, 287, 288
 289, 290, 291, 292, 293, 294, 295, 296, 297, 298, 299, 300, 301, 302, 303, 304
 305, 355, 356, 357, 358, 359, 360, 361, 362, 363, 364, 365, 366, 367, 368, 369
 370, 371, 372, 373, 374, 375, 376, 377, 378, 379, 380, 381, 382, 383, 384, 385
 386, 387, 388, 389, 390, 391, 392, 393, 394, 395, 396, 397, 398, 399, 400, 401
 402, 403
*End Part
**  
*Part, name=top
*Node
      1,         150.,          25.,   1.39999998
      2,         150.,           0.,   1.39999998
      3,         150.,          25.,           0.
      4,         150.,           0.,           0.
      5,         149.,          25.,   1.39999998
      6,         149.,           0.,   1.39999998
      7,         149.,          25.,           0.
      8,         149.,           0.,           0.
      9,         148.,          25.,   1.39999998
     10,         148.,           0.,   1.39999998
     11,         148.,          25.,           0.
     12,         148.,           0.,           0.
     13,         147.,          25.,   1.39999998
     14,         147.,           0.,   1.39999998
     15,         147.,          25.,           0.
     16,         147.,           0.,           0.
     17,         146.,          25.,   1.39999998
     18,         146.,           0.,   1.39999998
     19,         146.,          25.,           0.
     20,         146.,           0.,           0.
** ... 584 like lines cut
*Element, type=SC8R
  1,   7,   8,   4,   3,   5,   6,   2,   1
  2,  11,  12,   8,   7,   9,  10,   6,   5
  3,  15,  16,  12,  11,  13,  14,  10,   9
  4,  19,  20,  16,  15,  17,  18,  14,  13
  5,  23,  24,  20,  19,  21,  22,  18,  17
  6,  27,  28,  24,  23,  25,  26,  22,  21
  7,  31,  32,  28,  27,  29,  30,  26,  25
  8,  35,  36,  32,  31,  33,  34,  30,  29
  9,  39,  40,  36,  35,  37,  38,  34,  33
 10,  43,  44,  40,  39,  41,  42,  38,  37
 11,  47,  48,  44,  43,  45,  46,  42,  41
 12,  51,  52,  48,  47,  49,  50,  46,  45
 13,  55,  56,  52,  51,  53,  54,  50,  49
 14,  59,  60,  56,  55,  57,  58,  54,  53
 15,  63,  64,  60,  59,  61,  62,  58,  57
 16,  67,  68,  64,  63,  65,  66,  62,  61
 17,  71,  72,  68,  67,  69,  70,  66,  65
 18,  75,  76,  72,  71,  73,  74,  70,  69
 19,  79,  80,  76,  75,  77,  78,  74,  73
 20,  83,  84,  80,  79,  81,  82,  78,  77
** ... 130 like lines cut
*Nset, nset=_PickedSet3, internal, generate
   1,  604,    1
*Elset, elset=_PickedSet3, internal, generate
   1,  150,    1
*Elset, elset=_botsurf_S1, internal, generate
   1,  150,    1
*Surface, type=ELEMENT, name=botsurf
_botsurf_S1, S1
*Orientation, name=Ori-1
          1.,           0.,           0.,           0.,           1.,           0.
3, 0.
** Region: (CompositeLayup-1-1: Generated From Layup)
*Elset, elset=CompositeLayup-1-1, generate
   1,  150,    1
** Section: CompositeLayup-1-1
*Shell Section, elset=CompositeLayup-1-1, composite, orientation=Ori-1, stack direction=3, layup=CompositeLayup-1
1., 3, Material-1, 0., Ply-1
*End Part
**  
**
** ASSEMBLY
**
*Assembly, name=Assembly
**  
*Instance, name=bot-1, part=bot
*End Instance
**  
*Instance, name=fnm-1, part=fnm
          0.,           0.,          1.4
*End Instance
**  
*Instance, name=top-1, part=top
          0.,           0.,          1.6
*End Instance
**  
*Nset, nset=load, instance=top-1
 601, 602
*Elset, elset=load, instance=top-1
 150,
*Nset, nset=fix, instance=bot-1
 603, 604
*Elset, elset=fix, instance=bot-1
 150,
*Surface, type=NODE, name=fnm-1_botsurf_tie_CNS_, internal
fnm-1.botsurf_tie, 1.
*Surface, type=NODE, name=fnm-1_topsurf_tie_CNS_, internal
fnm-1.topsurf_tie, 1.
** Constraint: Constraint-1
*Tie, name=Constraint-1, adjust=yes
fnm-1_botsurf_tie_CNS_, bot-1.topsurf
** Constraint: Constraint-2
*Tie, name=Constraint-2, adjust=yes
fnm-1_topsurf_tie_CNS_, top-1.botsurf
*End Assembly
** 
** MATERIALS
** 
*Material, name=Material-1
*Elastic, type=ENGINEERING CONSTANTS
139400.,10160.,10160.,   0.3,   0.3, 0.436, 4600., 4600.
 3540.,
** 
** BOUNDARY CONDITIONS
** 
** Name: fix-bot Type: Displacement/Rotation
*Boundary
fix, 1, 1
fix, 2, 2
fix, 3, 3
** Name: fix-top Type: Displacement/Rotation
*Boundary
load, 1, 1
load, 2, 2
** ----------------------------------------------------------------
** 
** STEP: loading
** 
*Step, name=loading, inc=10000
*Static
0.002, 4., 0.0001, 0.002
** 
** BOUNDARY CONDITIONS
** 
** Name: load Type: Velocity/Angular velocity
*Boundary, type=VELOCITY
load, 3, 3, 1.
** 
** OUTPUT REQUESTS
** 
*Restart, write, frequency=0
** 
** FIELD OUTPUT: F-Output-1
** 
*Output, field
*Node Output
RF, U
*Element Output, directions=YES
EE, S
** 
** HISTORY OUTPUT: H-Output-1
** 
*Output, history, variable=PRESELECT
*End Step
