*Heading
** Job name: Pnc60fcltfbcd-r1 Model name: Pnc60fcltfbcd-r1
** Generated by: Abaqus/CAE 6.12-2
*Preprint, echo=NO, model=NO, history=NO, contact=NO
**
** PARTS
**
*Part, name=bot-part
*Node
      1,          53.,   12.6999998,   2.28600001
      2,           0.,   12.6999998,   2.28600001
      3,           0.,   12.6999998,    3.4289999
      4,          53.,   12.6999998,    3.4289999
      5,           0.,           0.,   2.28600001
      6,           0.,           0.,    3.4289999
      7,          53.,           0.,    3.4289999
      8,          53.,           0.,   2.28600001
      9,         127.,           0.,   2.28600001
     10,   114.300003,           0.,   2.28600001
     11,   114.300003,           0.,   1.14300001
     12,         127.,           0.,   1.14300001
     13,   114.300003,   12.6999998,   2.28600001
     14,   114.300003,   12.6999998,   1.14300001
     15,         127.,   12.6999998,   1.14300001
     16,         127.,   12.6999998,   2.28600001
     17,          83.,           0.,   2.28600001
     18,   58.2999992,           0.,   2.28600001
     19,   58.2999992,           0.,   1.14300001
     20,          83.,           0.,   1.14300001
** ... 15684 like lines cut
*Element, type=C3D8R
   1, 1881,  296,    1,   57, 3033,  249,    4,  152
   2, 1882, 1881,   57,   58, 3034, 3033,  152,  151
   3, 1883, 1882,   58,   59, 3035, 3034,  151,  150
   4, 1884, 1883,   59,   60, 3036, 3035,  150,  149
   5, 1885, 1884,   60,   61, 3037, 3036,  149,  148
   6, 1886, 1885,   61,   62, 3038, 3037,  148,  147
   7, 1887, 1886,   62,   63, 3039, 3038,  147,  146
   8, 1888, 1887,   63,   64, 3040, 3039,  146,  145
   9, 1889, 1888,   64,   65, 3041, 3040,  145,  144
  10, 1890, 1889,   65,   66, 3042, 3041,  144,  143
  11, 1891, 1890,   66,   67, 3043, 3042,  143,  142
  12, 1892, 1891,   67,   68, 3044, 3043,  142,  141
  13, 1893, 1892,   68,   69, 3045, 3044,  141,  140
  14, 1894, 1893,   69,   70, 3046, 3045,  140,  139
  15, 1895, 1894,   70,   71, 3047, 3046,  139,  138
  16, 1896, 1895,   71,   72, 3048, 3047,  138,  137
  17, 1897, 1896,   72,   73, 3049, 3048,  137,  136
  18, 1898, 1897,   73,   74, 3050, 3049,  136,  135
  19, 1899, 1898,   74,   75, 3051, 3050,  135,  134
  20, 1900, 1899,   75,   76, 3052, 3051,  134,  133
** ... 11230 like lines cut
*Nset, nset=_PickedSet179, internal, generate
     1,  15704,      1
*Elset, elset=_PickedSet179, internal, generate
     1,  11250,      1
*Elset, elset=_topsurf_S2, internal
     1,     2,     3,     4,     5,     6,     7,     8,     9,    10,    11,    12,    13,    14,    15,    16
    17,    18,    19,    20,    21,    22,    23,    24,    25,    26,    27,    28,    29,    30,    31,    32
    33,    34,    35,    36,    37,    38,    39,    40,    41,    42,    43,    44,    45,    46,    47,    48
    49,    50,    51,    52,    53,    54,    55,    56,    57,    58,    59,    60,    61,    62,    63,    64
    65,    66,    67,    68,    69,    70,    71,    72,    73,    74,    75,    76,    77,    78,    79,    80
    81,    82,    83,    84,    85,    86,    87,    88,    89,    90,    91,    92,    93,    94,    95,    96
    97,    98,    99,   100,   101,   102,   103,   104,   105,   106,   107,   108,   109,   110,   111,   112
   113,   114,   115,   116,   117,   118,   119,   120,   121,   122,   123,   124,   125,   126,   127,   128
   129,   130,   131,   132,   133,   134,   135,   136,   137,   138,   139,   140,   141,   142,   143,   144
   145,   146,   147,   148,   149,   150,   151,   152,   153,   154,   155,   156,   157,   158,   159,   160
   161,   162,   163,   164,   165,   166,   167,   168,   169,   170,   171,   172,   173,   174,   175,   176
   177,   178,   179,   180,   181,   182,   183,   184,   185,   186,   187,   188,   189,   190,   191,   192
   193,   194,   195,   196,   197,   198,   199,   200,   201,   202,   203,   204,   205,   206,   207,   208
   209,   210,   211,   212,   213,   214,   215,   216,   217,   218,   219,   220,   221,   222,   223,   224
   225,   226,   227,   228,   229,   230,   231,   232,   233,   234,   235,   236,   237,   238,   239,   240
   241,   242,   243,   244,   245,   246,   247,   248,   249,   250,   251,   252,   253,   254,   255,   256
   257,   258,   259,   260,   261,   262,   263,   264,   265,   266,   267,   268,   269,   270,   271,   272
   273,   274,   275,   276,   277,   278,   279,   280,   281,   282,   283,   284,   285,   286,   287,   288
   289,   290,   291,   292,   293,   294,   295,   296,   297,   298,   299,   300,   301,   302,   303,   304
   305,   306,   307,   308,   309,   310,   311,   312,   313,   314,   315,   316,   317,   318,   319,   320
** ... 205 like lines cut
*Surface, type=ELEMENT, name=topsurf
_topsurf_S2, S2
*Orientation, name=Ori-3
          1.,           0.,           0.,           0.,           1.,           0.
3, 0.
** Region: (clt3-1: Generated From Layup)
*Elset, elset=clt3-1
     1,     2,     3,     4,     5,     6,     7,     8,     9,    10,    11,    12,    13,    14,    15,    16
    17,    18,    19,    20,    21,    22,    23,    24,    25,    26,    27,    28,    29,    30,    31,    32
    33,    34,    35,    36,    37,    38,    39,    40,    41,    42,    43,    44,    45,    46,    47,    48
    49,    50,    51,    52,    53,    54,    55,    56,    57,    58,    59,    60,    61,    62,    63,    64
    65,    66,    67,    68,    69,    70,    71,    72,    73,    74,    75,    76,    77,    78,    79,    80
    81,    82,    83,    84,    85,    86,    87,    88,    89,    90,    91,    92,    93,    94,    95,    96
    97,    98,    99,   100,   101,   102,   103,   104,   105,   106,   107,   108,   109,   110,   111,   112
   113,   114,   115,   116,   117,   118,   119,   120,   121,   122,   123,   124,   125,   126,   127,   128
   129,   130,   131,   132,   133,   134,   135,   136,   137,   138,   139,   140,   141,   142,   143,   144
   145,   146,   147,   148,   149,   150,   151,   152,   153,   154,   155,   156,   157,   158,   159,   160
   161,   162,   163,   164,   165,   166,   167,   168,   169,   170,   171,   172,   173,   174,   175,   176
   177,   178,   179,   180,   181,   182,   183,   184,   185,   186,   187,   188,   189,   190,   191,   192
   193,   194,   195,   196,   197,   198,   199,   200,   201,   202,   203,   204,   205,   206,   207,   208
   209,   210,   211,   212,   213,   214,   215,   216,   217,   218,   219,   220,   221,   222,   223,   224
   225,   226,   227,   228,   229,   230,   231,   232,   233,   234,   235,   236,   237,   238,   239,   240
   241,   242,   243,   244,   245,   246,   247,   248,   249,   250,   251,   252,   253,   254,   255,   256
   257,   258,   259,   260,   261,   262,   263,   264,   265,   266,   267,   268,   269,   270,   271,   272
   273,   274,   275,   276,   277,   278,   279,   280,   281,   282,   283,   284,   285,   286,   287,   288
   289,   290,   291,   292,   293,   294,   295,   296,   297,   298,   299,   300,   301,   302,   303,   304
   305,   306,   307,   308,   309,   310,   311,   312,   313,   314,   315,   316,   317,   318,   319,   320
** ... 215 like lines cut
** Section: clt3-1
*Solid Section, elset=clt3-1, composite, orientation=Ori-3, stack direction=3, layup=clt3
0.111111, 1, Material-1, 30., Ply-19
0.111111, 1, Material-1, 60., Ply-20
0.111111, 1, Material-1, 60., Ply-21
0.111111, 1, Material-1, 60., Ply-22
0.111111, 1, Material-1, 60., Ply-23
0.111111, 1, Material-1, -60., Ply-24
0.111111, 1, Material-1, -60., Ply-25
0.111111, 1, Material-1, -60., Ply-26
0.111111, 1, Material-1, -60., Ply-27
*Orientation, name=Ori-2
          1.,           0.,           0.,           0.,           1.,           0.
3, 0.
** Region: (clt2-1: Generated From Layup)
*Elset, elset=clt2-1
  1226,  1227,  1228,  1229,  1230,  1231,  1232,  1233,  1234,  1235,  1236,  1237,  1238,  1239,  1240,  1241
  1242,  1243,  1244,  1245,  1246,  1247,  1248,  1249,  1250,  1251,  1252,  1253,  1254,  1255,  1256,  1257
  1258,  1259,  1260,  1261,  1262,  1263,  1264,  1265,  1266,  1267,  1268,  1269,  1270,  1271,  1272,  1273
  1274,  1275,  1276,  1277,  1278,  1279,  1280,  1281,  1282,  1283,  1284,  1285,  1286,  1287,  1288,  1289
  1290,  1291,  1292,  1293,  1294,  1295,  1296,  1297,  1298,  1299,  1300,  1301,  1302,  1303,  1304,  1305
  1306,  1307,  1308,  1309,  1310,  1311,  1312,  1313,  1314,  1315,  1316,  1317,  1318,  1319,  1320,  1321
  1322,  1323,  1324,  1325,  1326,  1327,  1328,  1329,  1330,  1331,  1332,  1333,  1334,  1335,  1336,  1337
  1338,  1339,  1340,  1341,  1342,  1343,  1344,  1345,  1346,  1347,  1348,  1349,  1350,  1351,  1352,  1353
  1354,  1355,  1356,  1357,  1358,  1359,  1360,  1361,  1362,  1363,  1364,  1365,  1366,  1367,  1368,  1369
  1370,  1371,  1372,  1373,  1374,  1375,  1376,  1377,  1378,  1379,  1380,  1381,  1382,  1383,  1384,  1385
  1386,  1387,  1388,  1389,  1390,  1391,  1392,  1393,  1394,  1395,  1396,  1397,  1398,  1399,  1400,  1401
  1402,  1403,  1404,  1405,  1406,  1407,  1408,  1409,  1410,  1411,  1412,  1413,  1414,  1415,  1416,  1417
  1418,  1419,  1420,  1421,  1422,  1423,  1424,  1425,  1426,  1427,  1428,  1429,  1430,  1431,  1432,  1433
  1434,  1435,  1436,  1437,  1438,  1439,  1440,  1441,  1442,  1443,  1444,  1445,  1446,  1447,  1448,  1449
  1450,  1451,  1452,  1453,  1454,  1455,  1456,  1457,  1458,  1459,  1460,  1461,  1462,  1463,  1464,  1465
  1466,  1467,  1468,  1469,  1470,  1471,  1472,  1473,  1474,  1475,  1476,  1477,  1478,  1479,  1480,  1481
  1482,  1483,  1484,  1485,  1486,  1487,  1488,  1489,  1490,  1491,  1492,  1493,  1494,  1495,  1496,  1497
  1498,  1499,  1500,  1501,  1502,  1503,  1504,  1505,  1506,  1507,  1508,  1509,  1510,  1511,  1512,  1513
  1514,  1515,  1516,  1517,  1518,  1519,  1520,  1521,  1522,  1523,  1524,  1525,  1526,  1527,  1528,  1529
  1530,  1531,  1532,  1533,  1534,  1535,  1536,  1537,  1538,  1539,  1540,  1541,  1542,  1543,  1544,  1545
** ... 215 like lines cut
** Section: clt2-1
*Solid Section, elset=clt2-1, composite, orientation=Ori-2, stack direction=3, layup=clt2
0.111111, 1, Material-1, -30., Ply-10
0.111111, 1, Material-1, -60., Ply-11
0.111111, 1, Material-1, -30., Ply-12
0.111111, 1, Material-1, 90., Ply-13
0.111111, 1, Material-1, -30., Ply-14
0.111111, 1, Material-1, 30., Ply-15
0.111111, 1, Material-1, 90., Ply-16
0.111111, 1, Material-1, 30., Ply-17
0.111111, 1, Material-1, 60., Ply-18
*Orientation, name=Ori-1
          1.,           0.,           0.,           0.,           1.,           0.
3, 0.
** Region: (clt1-1: Generated From Layup)
*Elset, elset=clt1-1
 3751, 3752, 3753, 3754, 3755, 3756, 3757, 3758, 3759, 3760, 3761, 3762, 3763, 3764, 3765, 3766
 3767, 3768, 3769, 3770, 3771, 3772, 3773, 3774, 3775, 3776, 3777, 3778, 3779, 3780, 3781, 3782
 3783, 3784, 3785, 3786, 3787, 3788, 3789, 3790, 3791, 3792, 3793, 3794, 3795, 3796, 3797, 3798
 3799, 3800, 3801, 3802, 3803, 3804, 3805, 3806, 3807, 3808, 3809, 3810, 3811, 3812, 3813, 3814
 3815, 3816, 3817, 3818, 3819, 3820, 3821, 3822, 3823, 3824, 3825, 3826, 3827, 3828, 3829, 3830
 3831, 3832, 3833, 3834, 3835, 3836, 3837, 3838, 3839, 3840, 3841, 3842, 3843, 3844, 3845, 3846
 3847, 3848, 3849, 3850, 3851, 3852, 3853, 3854, 3855, 3856, 3857, 3858, 3859, 3860, 3861, 3862
 3863, 3864, 3865, 3866, 3867, 3868, 3869, 3870, 3871, 3872, 3873, 3874, 3875, 3876, 3877, 3878
 3879, 3880, 3881, 3882, 3883, 3884, 3885, 3886, 3887, 3888, 3889, 3890, 3891, 3892, 3893, 3894
 3895, 3896, 3897, 3898, 3899, 3900, 3901, 3902, 3903, 3904, 3905, 3906, 3907, 3908, 3909, 3910
 3911, 3912, 3913, 3914, 3915, 3916, 3917, 3918, 3919, 3920, 3921, 3922, 3923, 3924, 3925, 3926
 3927, 3928, 3929, 3930, 3931, 3932, 3933, 3934, 3935, 3936, 3937, 3938, 3939, 3940, 3941, 3942
 3943, 3944, 3945, 3946, 3947, 3948, 3949, 3950, 3951, 3952, 3953, 3954, 3955, 3956, 3957, 3958
 3959, 3960, 3961, 3962, 3963, 3964, 3965, 3966, 3967, 3968, 3969, 3970, 3971, 3972, 3973, 3974
 3975, 3976, 3977, 3978, 3979, 3980, 3981, 3982, 3983, 3984, 3985, 3986, 3987, 3988, 3989, 3990
 3991, 3992, 3993, 3994, 3995, 3996, 3997, 3998, 3999, 4000, 4001, 4002, 4003, 4004, 4005, 4006
 4007, 4008, 4009, 4010, 4011, 4012, 4013, 4014, 4015, 4016, 4017, 4018, 4019, 4020, 4021, 4022
 4023, 4024, 4025, 4026, 4027, 4028, 4029, 4030, 4031, 4032, 4033, 4034, 4035, 4036, 4037, 4038
 4039, 4040, 4041, 4042, 4043, 4044, 4045, 4046, 4047, 4048, 4049, 4050, 4051, 4052, 4053, 4054
 4055, 4056, 4057, 4058, 4059, 4060, 4061, 4062, 4063, 4064, 4065, 4066, 4067, 4068, 4069, 4070
** ... 215 like lines cut
** Section: clt1-1
*Solid Section, elset=clt1-1, composite, orientation=Ori-1, stack direction=3, layup=clt1
0.111111, 1, Material-1, 60., Ply-1
0.111111, 1, Material-1, 0., Ply-2
0.111111, 1, Material-1, 60., Ply-3
0.111111, 1, Material-1, 60., Ply-4
0.111111, 1, Material-1, 60., Ply-5
0.111111, 1, Material-1, -60., Ply-6
0.111111, 1, Material-1, -60., Ply-7
0.111111, 1, Material-1, -60., Ply-8
0.111111, 1, Material-1, -60., Ply-9
*End Part
**  
*Part, name=clamp-bl
*Node
      1,           0.,           0.,           5.
      2,           0.,   12.6999998,           5.
      3,           0.,   12.6999998,           0.
      4,           0.,           0.,           0.
      5,   12.6999998,   12.6999998,           5.
      6,   12.6999998,   12.6999998,           0.
      7,   12.6999998,           0.,           5.
      8,   12.6999998,           0.,           0.
*Element, type=R3D4
1, 1, 2, 3, 4
2, 2, 5, 6, 3
3, 5, 7, 8, 6
4, 7, 1, 4, 8
5, 2, 1, 7, 5
6, 8, 4, 3, 6
*Node
      9,           0.,           0.,           5.
*Nset, nset=clamp-bl-RefPt_, internal
9, 
*Elset, elset=_topsurf_SPOS, internal
 5,
*Surface, type=ELEMENT, name=topsurf
_topsurf_SPOS, SPOS
*Elset, elset=_botsurf_SPOS, internal
 6,
*Surface, type=ELEMENT, name=botsurf
_botsurf_SPOS, SPOS
*Elset, elset=clamp-bl, generate
 1,  6,  1
*End Part
**  
*Part, name=clamp-br
*Node
      1,           0.,           0.,           5.
      2,           0.,   12.6999998,           5.
      3,           0.,   12.6999998,           0.
      4,           0.,           0.,           0.
      5,   12.6999998,   12.6999998,           5.
      6,   12.6999998,   12.6999998,           0.
      7,   12.6999998,           0.,           5.
      8,   12.6999998,           0.,           0.
*Element, type=R3D4
1, 1, 2, 3, 4
2, 2, 5, 6, 3
3, 5, 7, 8, 6
4, 7, 1, 4, 8
5, 2, 1, 7, 5
6, 8, 4, 3, 6
*Node
      9,           0.,           0.,           5.
*Nset, nset=clamp-br-RefPt_, internal
9, 
*Elset, elset=_topsurf_SPOS, internal
 5,
*Surface, type=ELEMENT, name=topsurf
_topsurf_SPOS, SPOS
*Elset, elset=_botsurf_SPOS, internal
 6,
*Surface, type=ELEMENT, name=botsurf
_botsurf_SPOS, SPOS
*Elset, elset=clamp-br, generate
 1,  6,  1
*End Part
**  
*Part, name=clamp-tl
*Node
      1,           0.,           0.,           5.
      2,           0.,   12.6999998,           5.
      3,           0.,   12.6999998,           0.
      4,           0.,           0.,           0.
      5,   12.6999998,   12.6999998,           5.
      6,   12.6999998,   12.6999998,           0.
      7,   12.6999998,           0.,           5.
      8,   12.6999998,           0.,           0.
*Element, type=R3D4
1, 1, 2, 3, 4
2, 2, 5, 6, 3
3, 5, 7, 8, 6
4, 7, 1, 4, 8
5, 2, 1, 7, 5
6, 8, 4, 3, 6
*Node
      9,           0.,           0.,           5.
*Nset, nset=clamp-tl-RefPt_, internal
9, 
*Elset, elset=_topsurf_SPOS, internal
 5,
*Surface, type=ELEMENT, name=topsurf
_topsurf_SPOS, SPOS
*Elset, elset=_botsurf_SPOS, internal
 6,
*Surface, type=ELEMENT, name=botsurf
_botsurf_SPOS, SPOS
*Elset, elset=clamp-tl, generate
 1,  6,  1
*End Part
**  
*Part, name=clamp-tr
*Node
      1,           0.,           0.,           5.
      2,           0.,   12.6999998,           5.
      3,           0.,   12.6999998,           0.
      4,           0.,           0.,           0.
      5,   12.6999998,   12.6999998,           5.
      6,   12.6999998,   12.6999998,           0.
      7,   12.6999998,           0.,           5.
      8,   12.6999998,           0.,           0.
*Element, type=R3D4
1, 1, 2, 3, 4
2, 2, 5, 6, 3
3, 5, 7, 8, 6
4, 7, 1, 4, 8
5, 2, 1, 7, 5
6, 8, 4, 3, 6
*Node
      9,           0.,           0.,           5.
*Nset, nset=clamp-tr-RefPt_, internal
9, 
*Elset, elset=_topsurf_SPOS, internal
 5,
*Surface, type=ELEMENT, name=topsurf
_topsurf_SPOS, SPOS
*Elset, elset=_botsurf_SPOS, internal
 6,
*Surface, type=ELEMENT, name=botsurf
_botsurf_SPOS, SPOS
*Elset, elset=clamp-tr, generate
 1,  6,  1
*End Part
**  
*Part, name=fnm
*Node
      1,   114.300003,   12.6999998,  0.762000024
      2,   114.300003,   12.6999998,           0.
      3,          83.,   12.6999998,           0.
      4,          83.,   12.6999998,  0.762000024
      5,   114.300003,           0.,           0.
      6,          83.,           0.,           0.
      7,          83.,           0.,  0.762000024
      8,   114.300003,           0.,  0.762000024
      9,         127.,   12.6999998,  0.762000024
     10,         127.,   12.6999998,           0.
     11,         127.,           0.,  0.762000024
     12,         127.,           0.,           0.
     13,   58.2999992,           0.,           0.
     14,   58.2999992,           0.,  0.762000024
     15,          53.,           0.,  0.762000024
     16,          53.,           0.,           0.
     17,   58.2999992,   12.6999998,  0.762000024
     18,          53.,   12.6999998,  0.762000024
     19,          53.,   12.6999998,           0.
     20,   58.2999992,   12.6999998,           0.
** ... 7520 like lines cut
*Element, type=C3D8R
  1, 1541,  209,    2,   25,  869,  184,    1,   80
  2, 1542, 1541,   25,   26,  870,  869,   80,   79
  3, 1543, 1542,   26,   27,  871,  870,   79,   78
  4, 1544, 1543,   27,   28,  872,  871,   78,   77
  5, 1545, 1544,   28,   29,  873,  872,   77,   76
  6, 1546, 1545,   29,   30,  874,  873,   76,   75
  7, 1547, 1546,   30,   31,  875,  874,   75,   74
  8, 1548, 1547,   31,   32,  876,  875,   74,   73
  9, 1549, 1548,   32,   33,  877,  876,   73,   72
 10, 1550, 1549,   33,   34,  878,  877,   72,   71
 11, 1551, 1550,   34,   35,  879,  878,   71,   70
 12, 1552, 1551,   35,   36,  880,  879,   70,   69
 13, 1553, 1552,   36,   37,  881,  880,   69,   68
 14, 1554, 1553,   37,   38,  882,  881,   68,   67
 15, 1555, 1554,   38,   39,  883,  882,   67,   66
 16, 1556, 1555,   39,   40,  884,  883,   66,   65
 17, 1557, 1556,   40,   41,  885,  884,   65,   64
 18, 1558, 1557,   41,   42,  886,  885,   64,   63
 19, 1559, 1558,   42,   43,  887,  886,   63,   62
 20, 1560, 1559,   43,   44,  888,  887,   62,   61
** ... 3580 like lines cut
*Elset, elset=predelam, generate
 2376,  3600,     1
*Nset, nset=topsurf_tie
    1,    4,    7,    8,    9,   11,   14,   15,   17,   18,   21,   23,   53,   54,   55,   56
   57,   58,   59,   60,   61,   62,   63,   64,   65,   66,   67,   68,   69,   70,   71,   72
   73,   74,   75,   76,   77,   78,   79,   80,  109,  110,  111,  112,  113,  114,  115,  116
  117,  118,  119,  120,  121,  122,  123,  124,  125,  126,  127,  128,  129,  130,  131,  132
  133,  134,  135,  136,  137,  138,  139,  140,  141,  142,  143,  144,  145,  146,  147,  148
  149,  150,  151,  152,  153,  154,  155,  156,  157,  158,  159,  160,  161,  162,  163,  164
  165,  166,  167,  168,  169,  170,  171,  172,  173,  174,  175,  176,  177,  178,  179,  180
  181,  182,  183,  184,  233,  234,  235,  236,  237,  243,  244,  245,  246,  247,  277,  278
  279,  280,  281,  282,  283,  284,  285,  286,  287,  288,  289,  290,  291,  292,  293,  294
  295,  296,  297,  298,  299,  300,  301,  302,  303,  304,  305,  306,  307,  308,  309,  310
  321,  322,  323,  324,  325,  326,  327,  328,  329,  330,  389,  390,  391,  392,  393,  394
  395,  396,  397,  398,  399,  400,  401,  402,  403,  404,  405,  406,  407,  408,  409,  410
  411,  412,  413,  414,  415,  416,  417,  418,  419,  420,  421,  422,  423,  424,  425,  426
  427,  428,  429,  430,  431,  432,  433,  434,  435,  436,  485,  486,  487,  488,  489,  490
  491,  492,  493,  494,  495,  496,  497,  498,  499,  500,  501,  502,  503,  504,  505,  506
  507,  508,  509,  510,  511,  512,  513,  514,  515,  516,  517,  518,  519,  520,  521,  522
  523,  524,  525,  526,  527,  528,  529,  530,  531,  532,  581,  582,  583,  584,  585,  586
  587,  588,  589,  590,  591,  592,  593,  594,  595,  596,  597,  598,  599,  600,  601,  602
  603,  604,  605,  606,  607,  608,  609,  610,  611,  612,  613,  614,  615,  616,  617,  618
  619,  620,  621,  622,  623,  624,  625,  626,  627,  628,  629,  630,  631,  632,  633,  634
** ... 216 like lines cut
*Nset, nset=botsurf_tie
    2,    3,    5,    6,   10,   12,   13,   16,   19,   20,   22,   24,   25,   26,   27,   28
   29,   30,   31,   32,   33,   34,   35,   36,   37,   38,   39,   40,   41,   42,   43,   44
   45,   46,   47,   48,   49,   50,   51,   52,   81,   82,   83,   84,   85,   86,   87,   88
   89,   90,   91,   92,   93,   94,   95,   96,   97,   98,   99,  100,  101,  102,  103,  104
  105,  106,  107,  108,  185,  186,  187,  188,  189,  190,  191,  192,  193,  194,  195,  196
  197,  198,  199,  200,  201,  202,  203,  204,  205,  206,  207,  208,  209,  210,  211,  212
  213,  214,  215,  216,  217,  218,  219,  220,  221,  222,  223,  224,  225,  226,  227,  228
  229,  230,  231,  232,  238,  239,  240,  241,  242,  248,  249,  250,  251,  252,  253,  254
  255,  256,  257,  258,  259,  260,  261,  262,  263,  264,  265,  266,  267,  268,  269,  270
  271,  272,  273,  274,  275,  276,  311,  312,  313,  314,  315,  316,  317,  318,  319,  320
  331,  332,  333,  334,  335,  336,  337,  338,  339,  340,  341,  342,  343,  344,  345,  346
  347,  348,  349,  350,  351,  352,  353,  354,  355,  356,  357,  358,  359,  360,  361,  362
  363,  364,  365,  366,  367,  368,  369,  370,  371,  372,  373,  374,  375,  376,  377,  378
  379,  380,  381,  382,  383,  384,  385,  386,  387,  388,  437,  438,  439,  440,  441,  442
  443,  444,  445,  446,  447,  448,  449,  450,  451,  452,  453,  454,  455,  456,  457,  458
  459,  460,  461,  462,  463,  464,  465,  466,  467,  468,  469,  470,  471,  472,  473,  474
  475,  476,  477,  478,  479,  480,  481,  482,  483,  484,  533,  534,  535,  536,  537,  538
  539,  540,  541,  542,  543,  544,  545,  546,  547,  548,  549,  550,  551,  552,  553,  554
  555,  556,  557,  558,  559,  560,  561,  562,  563,  564,  565,  566,  567,  568,  569,  570
  571,  572,  573,  574,  575,  576,  577,  578,  579,  580,  677,  678,  679,  680,  681,  682
** ... 216 like lines cut
*End Part
**  
*Part, name=top-part
*Node
      1,          83.,   12.6999998,   2.03200006
      2,   114.300003,   12.6999998,   2.03200006
      3,   114.300003,   12.6999998,   1.01600003
      4,          83.,   12.6999998,   1.01600003
      5,   114.300003,           0.,   2.03200006
      6,   114.300003,           0.,   1.01600003
      7,          83.,           0.,   1.01600003
      8,          83.,           0.,   2.03200006
      9,         127.,   12.6999998,   2.03200006
     10,         127.,   12.6999998,   1.01600003
     11,         127.,           0.,   2.03200006
     12,         127.,           0.,   1.01600003
     13,          53.,           0.,   2.03200006
     14,   58.2999992,           0.,   2.03200006
     15,   58.2999992,           0.,        2.921
     16,          53.,           0.,        2.921
     17,   58.2999992,   12.6999998,   2.03200006
     18,   58.2999992,   12.6999998,        2.921
     19,          53.,   12.6999998,        2.921
     20,          53.,   12.6999998,   2.03200006
** ... 12772 like lines cut
*Element, type=C3D8R
  1,  184, 2233,  104,    4,  185, 1561,   49,    1
  2, 2233, 2234,  103,  104, 1561, 1562,   50,   49
  3, 2234, 2235,  102,  103, 1562, 1563,   51,   50
  4, 2235, 2236,  101,  102, 1563, 1564,   52,   51
  5, 2236, 2237,  100,  101, 1564, 1565,   53,   52
  6, 2237, 2238,   99,  100, 1565, 1566,   54,   53
  7, 2238, 2239,   98,   99, 1566, 1567,   55,   54
  8, 2239, 2240,   97,   98, 1567, 1568,   56,   55
  9, 2240, 2241,   96,   97, 1568, 1569,   57,   56
 10, 2241, 2242,   95,   96, 1569, 1570,   58,   57
 11, 2242, 2243,   94,   95, 1570, 1571,   59,   58
 12, 2243, 2244,   93,   94, 1571, 1572,   60,   59
 13, 2244, 2245,   92,   93, 1572, 1573,   61,   60
 14, 2245, 2246,   91,   92, 1573, 1574,   62,   61
 15, 2246, 2247,   90,   91, 1574, 1575,   63,   62
 16, 2247, 2248,   89,   90, 1575, 1576,   64,   63
 17, 2248, 2249,   88,   89, 1576, 1577,   65,   64
 18, 2249, 2250,   87,   88, 1577, 1578,   66,   65
 19, 2250, 2251,   86,   87, 1578, 1579,   67,   66
 20, 2251, 2252,   85,   86, 1579, 1580,   68,   67
** ... 9130 like lines cut
*Nset, nset=_PickedSet154, internal, generate
     1,  12792,      1
*Elset, elset=_PickedSet154, internal, generate
    1,  9150,     1
*Elset, elset=_botsurf_S1, internal
 5376, 5377, 5378, 5379, 5380, 5381, 5382, 5383, 5384, 5385, 5386, 5387, 5388, 5389, 5390, 5391
 5392, 5393, 5394, 5395, 5396, 5397, 5398, 5399, 5400, 5401, 5402, 5403, 5404, 5405, 5406, 5407
 5408, 5409, 5410, 5411, 5412, 5413, 5414, 5415, 5416, 5417, 5418, 5419, 5420, 5421, 5422, 5423
 5424, 5425, 5426, 5427, 5428, 5429, 5430, 5431, 5432, 5433, 5434, 5435, 5436, 5437, 5438, 5439
 5440, 5441, 5442, 5443, 5444, 5445, 5446, 5447, 5448, 5449, 5450, 5451, 5452, 5453, 5454, 5455
 5456, 5457, 5458, 5459, 5460, 5461, 5462, 5463, 5464, 5465, 5466, 5467, 5468, 5469, 5470, 5471
 5472, 5473, 5474, 5475, 5476, 5477, 5478, 5479, 5480, 5481, 5482, 5483, 5484, 5485, 5486, 5487
 5488, 5489, 5490, 5491, 5492, 5493, 5494, 5495, 5496, 5497, 5498, 5499, 5500, 5501, 5502, 5503
 5504, 5505, 5506, 5507, 5508, 5509, 5510, 5511, 5512, 5513, 5514, 5515, 5516, 5517, 5518, 5519
 5520, 5521, 5522, 5523, 5524, 5525, 5526, 5527, 5528, 5529, 5530, 5531, 5532, 5533, 5534, 5535
 5536, 5537, 5538, 5539, 5540, 5541, 5542, 5543, 5544, 5545, 5546, 5547, 5548, 5549, 5550, 5551
 5552, 5553, 5554, 5555, 5556, 5557, 5558, 5559, 5560, 5561, 5562, 5563, 5564, 5565, 5566, 5567
 5568, 5569, 5570, 5571, 5572, 5573, 5574, 5575, 5576, 5577, 5578, 5579, 5580, 5581, 5582, 5583
 5584, 5585, 5586, 5587, 5588, 5589, 5590, 5591, 5592, 5593, 5594, 5595, 5596, 5597, 5598, 5599
 5600, 5601, 5602, 5603, 5604, 5605, 5606, 5607, 5608, 5609, 5610, 5611, 5612, 5613, 5614, 5615
 5616, 5617, 5618, 5619, 5620, 5621, 5622, 5623, 5624, 5625, 5626, 5627, 5628, 5629, 5630, 5631
 5632, 5633, 5634, 5635, 5636, 5637, 5638, 5639, 5640, 5641, 5642, 5643, 5644, 5645, 5646, 5647
 5648, 5649, 5650, 5651, 5652, 5653, 5654, 5655, 5656, 5657, 5658, 5659, 5660, 5661, 5662, 5663
 5664, 5665, 5666, 5667, 5668, 5669, 5670, 5671, 5672, 5673, 5674, 5675, 5676, 5677, 5678, 5679
 5680, 5681, 5682, 5683, 5684, 5685, 5686, 5687, 5688, 5689, 5690, 5691, 5692, 5693, 5694, 5695
** ... 171 like lines cut
*Surface, type=ELEMENT, name=botsurf
_botsurf_S1, S1
*Orientation, name=Ori-2
          1.,           0.,           0.,           0.,           1.,           0.
3, 0.
** Region: (clt2-1: Generated From Layup)
*Elset, elset=clt2-1
    1,    2,    3,    4,    5,    6,    7,    8,    9,   10,   11,   12,   13,   14,   15,   16
   17,   18,   19,   20,   21,   22,   23,   24,   25,   26,   27,   28,   29,   30,   31,   32
   33,   34,   35,   36,   37,   38,   39,   40,   41,   42,   43,   44,   45,   46,   47,   48
   49,   50,   51,   52,   53,   54,   55,   56,   57,   58,   59,   60,   61,   62,   63,   64
   65,   66,   67,   68,   69,   70,   71,   72,   73,   74,   75,   76,   77,   78,   79,   80
   81,   82,   83,   84,   85,   86,   87,   88,   89,   90,   91,   92,   93,   94,   95,   96
   97,   98,   99,  100,  101,  102,  103,  104,  105,  106,  107,  108,  109,  110,  111,  112
  113,  114,  115,  116,  117,  118,  119,  120,  121,  122,  123,  124,  125,  126,  127,  128
  129,  130,  131,  132,  133,  134,  135,  136,  137,  138,  139,  140,  141,  142,  143,  144
  145,  146,  147,  148,  149,  150,  151,  152,  153,  154,  155,  156,  157,  158,  159,  160
  161,  162,  163,  164,  165,  166,  167,  168,  169,  170,  171,  172,  173,  174,  175,  176
  177,  178,  179,  180,  181,  182,  183,  184,  185,  186,  187,  188,  189,  190,  191,  192
  193,  194,  195,  196,  197,  198,  199,  200,  201,  202,  203,  204,  205,  206,  207,  208
  209,  210,  211,  212,  213,  214,  215,  216,  217,  218,  219,  220,  221,  222,  223,  224
  225,  226,  227,  228,  229,  230,  231,  232,  233,  234,  235,  236,  237,  238,  239,  240
  241,  242,  243,  244,  245,  246,  247,  248,  249,  250,  251,  252,  253,  254,  255,  256
  257,  258,  259,  260,  261,  262,  263,  264,  265,  266,  267,  268,  269,  270,  271,  272
  273,  274,  275,  276,  277,  278,  279,  280,  281,  282,  283,  284,  285,  286,  287,  288
  289,  290,  291,  292,  293,  294,  295,  296,  297,  298,  299,  300,  301,  302,  303,  304
  305,  306,  307,  308,  309,  310,  311,  312,  313,  314,  315,  316,  317,  318,  319,  320
** ... 171 like lines cut
** Section: clt2-1
*Solid Section, elset=clt2-1, composite, orientation=Ori-2, stack direction=3, layup=clt2
0.125, 1, Material-1, -30., Ply-9
0.125, 1, Material-1, 30., Ply-10
0.125, 1, Material-1, 90., Ply-11
0.125, 1, Material-1, 30., Ply-12
0.125, 1, Material-1, 60., Ply-13
0.125, 1, Material-1, 30., Ply-14
0.125, 1, Material-1, 60., Ply-15
0.125, 1, Material-1, 60., Ply-16
*Orientation, name=Ori-3
          1.,           0.,           0.,           0.,           1.,           0.
3, 0.
** Region: (clt3-1: Generated From Layup)
*Elset, elset=clt3-1
  876,  877,  878,  879,  880,  881,  882,  883,  884,  885,  886,  887,  888,  889,  890,  891
  892,  893,  894,  895,  896,  897,  898,  899,  900,  901,  902,  903,  904,  905,  906,  907
  908,  909,  910,  911,  912,  913,  914,  915,  916,  917,  918,  919,  920,  921,  922,  923
  924,  925,  926,  927,  928,  929,  930,  931,  932,  933,  934,  935,  936,  937,  938,  939
  940,  941,  942,  943,  944,  945,  946,  947,  948,  949,  950,  951,  952,  953,  954,  955
  956,  957,  958,  959,  960,  961,  962,  963,  964,  965,  966,  967,  968,  969,  970,  971
  972,  973,  974,  975,  976,  977,  978,  979,  980,  981,  982,  983,  984,  985,  986,  987
  988,  989,  990,  991,  992,  993,  994,  995,  996,  997,  998,  999, 1000, 1001, 1002, 1003
 1004, 1005, 1006, 1007, 1008, 1009, 1010, 1011, 1012, 1013, 1014, 1015, 1016, 1017, 1018, 1019
 1020, 1021, 1022, 1023, 1024, 1025, 1026, 1027, 1028, 1029, 1030, 1031, 1032, 1033, 1034, 1035
 1036, 1037, 1038, 1039, 1040, 1041, 1042, 1043, 1044, 1045, 1046, 1047, 1048, 1049, 1050, 1051
 1052, 1053, 1054, 1055, 1056, 1057, 1058, 1059, 1060, 1061, 1062, 1063, 1064, 1065, 1066, 1067
 1068, 1069, 1070, 1071, 1072, 1073, 1074, 1075, 1076, 1077, 1078, 1079, 1080, 1081, 1082, 1083
 1084, 1085, 1086, 1087, 1088, 1089, 1090, 1091, 1092, 1093, 1094, 1095, 1096, 1097, 1098, 1099
 1100, 1101, 1102, 1103, 1104, 1105, 1106, 1107, 1108, 1109, 1110, 1111, 1112, 1113, 1114, 1115
 1116, 1117, 1118, 1119, 1120, 1121, 1122, 1123, 1124, 1125, 1126, 1127, 1128, 1129, 1130, 1131
 1132, 1133, 1134, 1135, 1136, 1137, 1138, 1139, 1140, 1141, 1142, 1143, 1144, 1145, 1146, 1147
 1148, 1149, 1150, 1151, 1152, 1153, 1154, 1155, 1156, 1157, 1158, 1159, 1160, 1161, 1162, 1163
 1164, 1165, 1166, 1167, 1168, 1169, 1170, 1171, 1172, 1173, 1174, 1175, 1176, 1177, 1178, 1179
 1180, 1181, 1182, 1183, 1184, 1185, 1186, 1187, 1188, 1189, 1190, 1191, 1192, 1193, 1194, 1195
** ... 171 like lines cut
** Section: clt3-1
*Solid Section, elset=clt3-1, composite, orientation=Ori-3, stack direction=3, layup=clt3
0.142857, 1, Material-1, 60., Ply-17
0.142857, 1, Material-1, 60., Ply-18
0.142857, 1, Material-1, 0., Ply-19
0.142857, 1, Material-1, -60., Ply-20
0.142857, 1, Material-1, -60., Ply-21
0.142857, 1, Material-1, -60., Ply-22
0.142857, 1, Material-1, -60., Ply-23
*Orientation, name=Ori-1
          1.,           0.,           0.,           0.,           1.,           0.
3, 0.
** Region: (clt1-1: Generated From Layup)
*Elset, elset=clt1-1
 5376, 5377, 5378, 5379, 5380, 5381, 5382, 5383, 5384, 5385, 5386, 5387, 5388, 5389, 5390, 5391
 5392, 5393, 5394, 5395, 5396, 5397, 5398, 5399, 5400, 5401, 5402, 5403, 5404, 5405, 5406, 5407
 5408, 5409, 5410, 5411, 5412, 5413, 5414, 5415, 5416, 5417, 5418, 5419, 5420, 5421, 5422, 5423
 5424, 5425, 5426, 5427, 5428, 5429, 5430, 5431, 5432, 5433, 5434, 5435, 5436, 5437, 5438, 5439
 5440, 5441, 5442, 5443, 5444, 5445, 5446, 5447, 5448, 5449, 5450, 5451, 5452, 5453, 5454, 5455
 5456, 5457, 5458, 5459, 5460, 5461, 5462, 5463, 5464, 5465, 5466, 5467, 5468, 5469, 5470, 5471
 5472, 5473, 5474, 5475, 5476, 5477, 5478, 5479, 5480, 5481, 5482, 5483, 5484, 5485, 5486, 5487
 5488, 5489, 5490, 5491, 5492, 5493, 5494, 5495, 5496, 5497, 5498, 5499, 5500, 5501, 5502, 5503
 5504, 5505, 5506, 5507, 5508, 5509, 5510, 5511, 5512, 5513, 5514, 5515, 5516, 5517, 5518, 5519
 5520, 5521, 5522, 5523, 5524, 5525, 5526, 5527, 5528, 5529, 5530, 5531, 5532, 5533, 5534, 5535
 5536, 5537, 5538, 5539, 5540, 5541, 5542, 5543, 5544, 5545, 5546, 5547, 5548, 5549, 5550, 5551
 5552, 5553, 5554, 5555, 5556, 5557, 5558, 5559, 5560, 5561, 5562, 5563, 5564, 5565, 5566, 5567
 5568, 5569, 5570, 5571, 5572, 5573, 5574, 5575, 5576, 5577, 5578, 5579, 5580, 5581, 5582, 5583
 5584, 5585, 5586, 5587, 5588, 5589, 5590, 5591, 5592, 5593, 5594, 5595, 5596, 5597, 5598, 5599
 5600, 5601, 5602, 5603, 5604, 5605, 5606, 5607, 5608, 5609, 5610, 5611, 5612, 5613, 5614, 5615
 5616, 5617, 5618, 5619, 5620, 5621, 5622, 5623, 5624, 5625, 5626, 5627, 5628, 5629, 5630, 5631
 5632, 5633, 5634, 5635, 5636, 5637, 5638, 5639, 5640, 5641, 5642, 5643, 5644, 5645, 5646, 5647
 5648, 5649, 5650, 5651, 5652, 5653, 5654, 5655, 5656, 5657, 5658, 5659, 5660, 5661, 5662, 5663
 5664, 5665, 5666, 5667, 5668, 5669, 5670, 5671, 5672, 5673, 5674, 5675, 5676, 5677, 5678, 5679
 5680, 5681, 5682, 5683, 5684, 5685, 5686, 5687, 5688, 5689, 5690, 5691, 5692, 5693, 5694, 5695
** ... 171 like lines cut
** Section: clt1-1
*Solid Section, elset=clt1-1, composite, orientation=Ori-1, stack direction=3, layup=clt1
0.125, 1, Material-1, -60., Ply-1
0.125, 1, Material-1, -60., Ply-2
0.125, 1, Material-1, -60., Ply-3
0.125, 1, Material-1, -60., Ply-4
0.125, 1, Material-1, -30., Ply-5
0.125, 1, Material-1, -60., Ply-6
0.125, 1, Material-1, -30., Ply-7
0.125, 1, Material-1, 90., Ply-8
*End Part
**  
**
** ASSEMBLY
**
*Assembly, name=Assembly
**  
*Instance, name=bot-part-1, part=bot-part
*End Instance
**  
*Instance, name=fnm-1, part=fnm
          0.,           0.,        3.429
*End Instance
**  
*Instance, name=top-part-1, part=top-part
          0.,           0.,        4.191
*End Instance
**  
*Instance, name=clamp-tl-1, part=clamp-tl
       -12.7,           0.,        3.429
*End Instance
**  
*Instance, name=clamp-bl-1, part=clamp-bl
       -12.7,           0.,          -5.
*End Instance
**  
*Instance, name=clamp-tr-1, part=clamp-tr
       114.3,           0.,        7.112
*End Instance
**  
*Instance, name=clamp-br-1, part=clamp-br
       114.3,           0.,          -5.
*End Instance
**  
*Nset, nset=_PickedSet54, internal, instance=clamp-tl-1
 1,
*Nset, nset=_PickedSet54, internal, instance=clamp-tr-1
 1,
*Nset, nset=_PickedSet58, internal, instance=clamp-bl-1
 9,
*Nset, nset=_PickedSet59, internal, instance=clamp-tl-1
 9,
*Nset, nset=_PickedSet60, internal, instance=clamp-br-1
 9,
*Nset, nset=_PickedSet61, internal, instance=clamp-tr-1
 9,
*Nset, nset=_PickedSet63, internal, instance=clamp-tr-1
 9,
*Nset, nset=_PickedSet64, internal, instance=clamp-tl-1
 9,
*Nset, nset=load, instance=top-part-1
  15,  18, 413, 414, 415, 416, 417, 418, 419, 420, 421, 422, 423, 424, 425, 426
 427, 428, 429, 430, 431, 432, 433, 434, 435, 436
*Elset, elset=load, instance=top-part-1
  886,  897,  908,  919,  930,  941,  952,  963,  974,  985,  996, 1007, 1018, 1029, 1040, 1051
 1062, 1073, 1084, 1095, 1106, 1117, 1128, 1139, 1150, 1151, 1200, 1249, 1298, 1347, 1396, 1445
 1494, 1543, 1592, 1641, 1690, 1739, 1788, 1837, 1886, 1935, 1984, 2033, 2082, 2131, 2180, 2229
 2278, 2327
*Elset, elset=_specimen-topl_S2, internal, instance=bot-part-1, generate
 2601,  2750,     1
*Surface, type=ELEMENT, name=specimen-topl
_specimen-topl_S2, S2
*Elset, elset=_specimen-topr_S2, internal, instance=top-part-1, generate
 5226,  5375,     1
*Surface, type=ELEMENT, name=specimen-topr
_specimen-topr_S2, S2
*Elset, elset=_specimen-botl_S1, internal, instance=bot-part-1, generate
 6626,  6775,     1
*Surface, type=ELEMENT, name=specimen-botl
_specimen-botl_S1, S1
*Elset, elset=_specimen-botr_S1, internal, instance=bot-part-1, generate
 4976,  5125,     1
*Surface, type=ELEMENT, name=specimen-botr
_specimen-botr_S1, S1
*Surface, type=NODE, name=fnm-1_botsurf_tie_CNS_, internal
fnm-1.botsurf_tie, 1.
*Surface, type=NODE, name=fnm-1_topsurf_tie_CNS_, internal
fnm-1.topsurf_tie, 1.
*Rigid Body, ref node=clamp-tl-1.clamp-tl-RefPt_, elset=clamp-tl-1.clamp-tl
*Rigid Body, ref node=clamp-bl-1.clamp-bl-RefPt_, elset=clamp-bl-1.clamp-bl
*Rigid Body, ref node=clamp-tr-1.clamp-tr-RefPt_, elset=clamp-tr-1.clamp-tr
*Rigid Body, ref node=clamp-br-1.clamp-br-RefPt_, elset=clamp-br-1.clamp-br
** Constraint: Constraint-1
*Tie, name=Constraint-1, adjust=yes
fnm-1_botsurf_tie_CNS_, bot-part-1.topsurf
** Constraint: Constraint-2
*Tie, name=Constraint-2, adjust=yes
fnm-1_topsurf_tie_CNS_, top-part-1.botsurf
*End Assembly
** 
** MATERIALS
** 
*Material, name=Material-1
*Elastic, type=ENGINEERING CONSTANTS
161000.,11400.,11400.,  0.32,  0.32, 0.436, 5170., 5170.
 3980.,
** 
** INTERACTION PROPERTIES
** 
*Surface Interaction, name=clamp
1.,
*Friction, slip tolerance=0.005
 0.23,
** 
** BOUNDARY CONDITIONS
** 
** Name: fixleft Type: Displacement/Rotation
*Boundary
_PickedSet58, 1, 1
_PickedSet58, 2, 2
_PickedSet58, 3, 3
_PickedSet58, 4, 4
_PickedSet58, 5, 5
_PickedSet58, 6, 6
** Name: fixlefttop Type: Displacement/Rotation
*Boundary
_PickedSet59, 1, 1
_PickedSet59, 2, 2
_PickedSet59, 4, 4
_PickedSet59, 5, 5
_PickedSet59, 6, 6
** Name: fixload Type: Displacement/Rotation
*Boundary
load, 1, 1
load, 2, 2
** Name: fixright Type: Displacement/Rotation
*Boundary
_PickedSet60, 1, 1
_PickedSet60, 2, 2
_PickedSet60, 3, 3
_PickedSet60, 4, 4
_PickedSet60, 5, 5
_PickedSet60, 6, 6
** Name: fixrighttop Type: Displacement/Rotation
*Boundary
_PickedSet61, 1, 1
_PickedSet61, 2, 2
_PickedSet61, 4, 4
_PickedSet61, 5, 5
_PickedSet61, 6, 6
** 
** INTERACTIONS
** 
** Interaction: Clamps
*Contact
*Contact Inclusions
clamp-tl-1.botsurf , specimen-topl
clamp-tr-1.botsurf , specimen-topr
clamp-bl-1.topsurf , specimen-botl
clamp-br-1.topsurf , specimen-botr
*Contact Property Assignment
 ,  , clamp
** ----------------------------------------------------------------
** 
** STEP: clamp
** 
*Step, name=clamp
*Static
1., 1., 1e-05, 1.
** 
** BOUNDARY CONDITIONS
** 
** Name: clamp-l Type: Displacement/Rotation
*Boundary
_PickedSet64, 3, 3, -0.00317
** Name: clamp-r Type: Displacement/Rotation
*Boundary
_PickedSet63, 3, 3, -0.006575
** 
** OUTPUT REQUESTS
** 
*Restart, write, frequency=0
** 
** FIELD OUTPUT: F-Output-1
** 
*Output, field
*Node Output
RF, U
*Element Output, directions=YES
E, S
** 
** HISTORY OUTPUT: H-Output-1
** 
*Output, history, variable=PRESELECT
*End Step
** ----------------------------------------------------------------
** 
** STEP: loading
** 
*Step, name=loading, inc=10000
*Static
0.001, 3., 0.0001, 0.001
** 
** BOUNDARY CONDITIONS
** 
** Name: load Type: Velocity/Angular velocity
*Boundary, type=VELOCITY
load, 3, 3, 1.
** 
** OUTPUT REQUESTS
** 
*Restart, write, frequency=0
** 
** FIELD OUTPUT: F-Output-1
** 
*Output, field
*Node Output
RF, U
*Element Output, directions=YES
E, S
** 
** HISTORY OUTPUT: H-Output-1
** 
*Output, history, variable=PRESELECT
*End Step
