*Heading
** Job name: DCB-mesh3-2D Model name: DCB-mesh3-2D
** Generated by: Abaqus/CAE 6.12-2
*Preprint, echo=NO, model=NO, history=NO, contact=NO
**
** PARTS
**
*Part, name=bot
*Node
      1,         150.,          25.,   1.39999998
      2,         150.,           0.,   1.39999998
      3,         150.,          25.,           0.
      4,         150.,           0.,           0.
      5,         149.,          25.,   1.39999998
      6,         149.,           0.,   1.39999998
      7,         149.,          25.,           0.
      8,         149.,           0.,           0.
      9,         148.,          25.,   1.39999998
     10,         148.,           0.,   1.39999998
     11,         148.,          25.,           0.
     12,         148.,           0.,           0.
     13,         147.,          25.,   1.39999998
     14,         147.,           0.,   1.39999998
     15,         147.,          25.,           0.
     16,         147.,           0.,           0.
     17,         146.,          25.,   1.39999998
     18,         146.,           0.,   1.39999998
     19,         146.,          25.,           0.
     20,         146.,           0.,           0.
** ... 584 like lines cut
*Element, type=SC8R
  1,   7,   8,   4,   3,   5,   6,   2,   1
  2,  11,  12,   8,   7,   9,  10,   6,   5
  3,  15,  16,  12,  11,  13,  14,  10,   9
  4,  19,  20,  16,  15,  17,  18,  14,  13
  5,  23,  24,  20,  19,  21,  22,  18,  17
  6,  27,  28,  24,  23,  25,  26,  22,  21
  7,  31,  32,  28,  27,  29,  30,  26,  25
  8,  35,  36,  32,  31,  33,  34,  30,  29
  9,  39,  40,  36,  35,  37,  38,  34,  33
 10,  43,  44,  40,  39,  41,  42,  38,  37
 11,  47,  48,  44,  43,  45,  46,  42,  41
 12,  51,  52,  48,  47,  49,  50,  46,  45
 13,  55,  56,  52,  51,  53,  54,  50,  49
 14,  59,  60,  56,  55,  57,  58,  54,  53
 15,  63,  64,  60,  59,  61,  62,  58,  57
 16,  67,  68,  64,  63,  65,  66,  62,  61
 17,  71,  72,  68,  67,  69,  70,  66,  65
 18,  75,  76,  72,  71,  73,  74,  70,  69
 19,  79,  80,  76,  75,  77,  78,  74,  73
 20,  83,  84,  80,  79,  81,  82,  78,  77
** ... 130 like lines cut
*Nset, nset=_PickedSet3, internal, generate
   1,  604,    1
*Elset, elset=_PickedSet3, internal, generate
   1,  150,    1
*Elset, elset=_topsurf_S2, internal, generate
   1,  150,    1
*Surface, type=ELEMENT, name=topsurf
_topsurf_S2, S2
*Orientation, name=Ori-1
          1.,           0.,           0.,           0.,           1.,           0.
3, 0.
** Region: (CompositeLayup-1-1: Generated From Layup)
*Elset, elset=CompositeLayup-1-1, generate
   1,  150,    1
** Section: CompositeLayup-1-1
*Shell Section, elset=CompositeLayup-1-1, composite, orientation=Ori-1, stack direction=3, layup=CompositeLayup-1
1., 3, Material-1, 0., Ply-1
*End Part
**  
*Part, name=fnm
*Node
      1,         30.5,           0.,           0.
      2,         30.5,           0.,  0.200000003
      3,           0.,           0.,  0.200000003
      4,           0.,           0.,           0.
      5,         30.5,          25.,  0.200000003
      6,           0.,          25.,  0.200000003
      7,           0.,          25.,           0.
      8,         30.5,          25.,           0.
      9,         150.,          25.,  0.200000003
     10,         150.,           0.,  0.200000003
     11,         150.,           0.,           0.
     12,         150.,          25.,           0.
     13,         29.5,           0.,  0.200000003
     14,   28.4312382,           0.,  0.200000003
     15,   27.2889881,           0.,  0.200000003
     16,   26.0681953,           0.,  0.200000003
     17,   24.7634583,           0.,  0.200000003
     18,   23.3690071,           0.,  0.200000003
     19,   21.8786716,           0.,  0.200000003
     20,   20.2858582,           0.,  0.200000003
** ... 244 like lines cut
*Element, type=C3D8R
 1,  8, 61, 44,  1,  5, 60, 13,  2
 2, 61, 62, 43, 44, 60, 59, 14, 13
 3, 62, 63, 42, 43, 59, 58, 15, 14
 4, 63, 64, 41, 42, 58, 57, 16, 15
 5, 64, 65, 40, 41, 57, 56, 17, 16
 6, 65, 66, 39, 40, 56, 55, 18, 17
 7, 66, 67, 38, 39, 55, 54, 19, 18
 8, 67, 68, 37, 38, 54, 53, 20, 19
 9, 68, 69, 36, 37, 53, 52, 21, 20
10, 69, 70, 35, 36, 52, 51, 22, 21
11, 70, 71, 34, 35, 51, 50, 23, 22
12, 71, 72, 33, 34, 50, 49, 24, 23
13, 72, 73, 32, 33, 49, 48, 25, 24
14, 73, 74, 31, 32, 48, 47, 26, 25
15, 74, 75, 30, 31, 47, 46, 27, 26
16, 75, 76, 29, 30, 46, 45, 28, 27
17, 76,  7,  4, 29, 45,  6,  3, 28
18,  77, 217,  11,  12, 170, 218,  10,   9
19,  78, 216, 217,  77, 169, 219, 218, 170
20,  79, 215, 216,  78, 168, 220, 219, 169
** ... 45 like lines cut
*Nset, nset=topsurf_tie
   2,   3,   5,   6,   9,  10,  13,  14,  15,  16,  17,  18,  19,  20,  21,  22
  23,  24,  25,  26,  27,  28,  45,  46,  47,  48,  49,  50,  51,  52,  53,  54
  55,  56,  57,  58,  59,  60, 124, 125, 126, 127, 128, 129, 130, 131, 132, 133
 134, 135, 136, 137, 138, 139, 140, 141, 142, 143, 144, 145, 146, 147, 148, 149
 150, 151, 152, 153, 154, 155, 156, 157, 158, 159, 160, 161, 162, 163, 164, 165
 166, 167, 168, 169, 170, 218, 219, 220, 221, 222, 223, 224, 225, 226, 227, 228
 229, 230, 231, 232, 233, 234, 235, 236, 237, 238, 239, 240, 241, 242, 243, 244
 245, 246, 247, 248, 249, 250, 251, 252, 253, 254, 255, 256, 257, 258, 259, 260
 261, 262, 263, 264
*Nset, nset=botsurf_tie
   1,   4,   7,   8,  11,  12,  29,  30,  31,  32,  33,  34,  35,  36,  37,  38
  39,  40,  41,  42,  43,  44,  61,  62,  63,  64,  65,  66,  67,  68,  69,  70
  71,  72,  73,  74,  75,  76,  77,  78,  79,  80,  81,  82,  83,  84,  85,  86
  87,  88,  89,  90,  91,  92,  93,  94,  95,  96,  97,  98,  99, 100, 101, 102
 103, 104, 105, 106, 107, 108, 109, 110, 111, 112, 113, 114, 115, 116, 117, 118
 119, 120, 121, 122, 123, 171, 172, 173, 174, 175, 176, 177, 178, 179, 180, 181
 182, 183, 184, 185, 186, 187, 188, 189, 190, 191, 192, 193, 194, 195, 196, 197
 198, 199, 200, 201, 202, 203, 204, 205, 206, 207, 208, 209, 210, 211, 212, 213
 214, 215, 216, 217
*Elset, elset=predelam, generate
  1,  17,   1
*End Part
**  
*Part, name=top
*Node
      1,         150.,          25.,   1.39999998
      2,         150.,           0.,   1.39999998
      3,         150.,          25.,           0.
      4,         150.,           0.,           0.
      5,         149.,          25.,   1.39999998
      6,         149.,           0.,   1.39999998
      7,         149.,          25.,           0.
      8,         149.,           0.,           0.
      9,         148.,          25.,   1.39999998
     10,         148.,           0.,   1.39999998
     11,         148.,          25.,           0.
     12,         148.,           0.,           0.
     13,         147.,          25.,   1.39999998
     14,         147.,           0.,   1.39999998
     15,         147.,          25.,           0.
     16,         147.,           0.,           0.
     17,         146.,          25.,   1.39999998
     18,         146.,           0.,   1.39999998
     19,         146.,          25.,           0.
     20,         146.,           0.,           0.
** ... 584 like lines cut
*Element, type=SC8R
  1,   7,   8,   4,   3,   5,   6,   2,   1
  2,  11,  12,   8,   7,   9,  10,   6,   5
  3,  15,  16,  12,  11,  13,  14,  10,   9
  4,  19,  20,  16,  15,  17,  18,  14,  13
  5,  23,  24,  20,  19,  21,  22,  18,  17
  6,  27,  28,  24,  23,  25,  26,  22,  21
  7,  31,  32,  28,  27,  29,  30,  26,  25
  8,  35,  36,  32,  31,  33,  34,  30,  29
  9,  39,  40,  36,  35,  37,  38,  34,  33
 10,  43,  44,  40,  39,  41,  42,  38,  37
 11,  47,  48,  44,  43,  45,  46,  42,  41
 12,  51,  52,  48,  47,  49,  50,  46,  45
 13,  55,  56,  52,  51,  53,  54,  50,  49
 14,  59,  60,  56,  55,  57,  58,  54,  53
 15,  63,  64,  60,  59,  61,  62,  58,  57
 16,  67,  68,  64,  63,  65,  66,  62,  61
 17,  71,  72,  68,  67,  69,  70,  66,  65
 18,  75,  76,  72,  71,  73,  74,  70,  69
 19,  79,  80,  76,  75,  77,  78,  74,  73
 20,  83,  84,  80,  79,  81,  82,  78,  77
** ... 130 like lines cut
*Nset, nset=_PickedSet3, internal, generate
   1,  604,    1
*Elset, elset=_PickedSet3, internal, generate
   1,  150,    1
*Elset, elset=_botsurf_S1, internal, generate
   1,  150,    1
*Surface, type=ELEMENT, name=botsurf
_botsurf_S1, S1
*Orientation, name=Ori-1
          1.,           0.,           0.,           0.,           1.,           0.
3, 0.
** Region: (CompositeLayup-1-1: Generated From Layup)
*Elset, elset=CompositeLayup-1-1, generate
   1,  150,    1
** Section: CompositeLayup-1-1
*Shell Section, elset=CompositeLayup-1-1, composite, orientation=Ori-1, stack direction=3, layup=CompositeLayup-1
1., 3, Material-1, 0., Ply-1
*End Part
**  
**
** ASSEMBLY
**
*Assembly, name=Assembly
**  
*Instance, name=bot-1, part=bot
*End Instance
**  
*Instance, name=fnm-1, part=fnm
          0.,           0.,          1.4
*End Instance
**  
*Instance, name=top-1, part=top
          0.,           0.,          1.6
*End Instance
**  
*Nset, nset=load, instance=top-1
 601, 602
*Elset, elset=load, instance=top-1
 150,
*Nset, nset=fix, instance=bot-1
 603, 604
*Elset, elset=fix, instance=bot-1
 150,
*Surface, type=NODE, name=fnm-1_botsurf_tie_CNS_, internal
fnm-1.botsurf_tie, 1.
*Surface, type=NODE, name=fnm-1_topsurf_tie_CNS_, internal
fnm-1.topsurf_tie, 1.
** Constraint: Constraint-1
*Tie, name=Constraint-1, adjust=yes
fnm-1_botsurf_tie_CNS_, bot-1.topsurf
** Constraint: Constraint-2
*Tie, name=Constraint-2, adjust=yes
fnm-1_topsurf_tie_CNS_, top-1.botsurf
*End Assembly
** 
** MATERIALS
** 
*Material, name=Material-1
*Elastic, type=ENGINEERING CONSTANTS
139400.,10160.,10160.,   0.3,   0.3, 0.436, 4600., 4600.
 3540.,
** 
** BOUNDARY CONDITIONS
** 
** Name: fix-bot Type: Displacement/Rotation
*Boundary
fix, 1, 1
fix, 2, 2
fix, 3, 3
** Name: fix-top Type: Displacement/Rotation
*Boundary
load, 1, 1
load, 2, 2
** ----------------------------------------------------------------
** 
** STEP: loading
** 
*Step, name=loading, inc=10000
*Static
0.002, 4., 0.0001, 0.002
** 
** BOUNDARY CONDITIONS
** 
** Name: load Type: Velocity/Angular velocity
*Boundary, type=VELOCITY
load, 3, 3, 1.
** 
** OUTPUT REQUESTS
** 
*Restart, write, frequency=0
** 
** FIELD OUTPUT: F-Output-1
** 
*Output, field
*Node Output
RF, U
*Element Output, directions=YES
EE, S
** 
** HISTORY OUTPUT: H-Output-1
** 
*Output, history, variable=PRESELECT
*End Step
