*Heading
** Job name: DCB-mesh1 Model name: DCB
** Generated by: Abaqus/CAE 6.12-2
*Preprint, echo=NO, model=NO, history=NO, contact=NO
**
** PARTS
**
*Part, name=bot
*Node
      1,         150.,          25.,   1.39999998
      2,         150.,         22.5,   1.39999998
      3,         150.,          20.,   1.39999998
      4,         150.,         17.5,   1.39999998
      5,         150.,          15.,   1.39999998
      6,         150.,         12.5,   1.39999998
      7,         150.,          10.,   1.39999998
      8,         150.,          7.5,   1.39999998
      9,         150.,           5.,   1.39999998
     10,         150.,          2.5,   1.39999998
     11,         150.,           0.,   1.39999998
     12,         150.,          25.,           0.
     13,         150.,         22.5,           0.
     14,         150.,          20.,           0.
     15,         150.,         17.5,           0.
     16,         150.,          15.,           0.
     17,         150.,         12.5,           0.
     18,         150.,          10.,           0.
     19,         150.,          7.5,           0.
     20,         150.,           5.,           0.
** ... 1322 like lines cut
*Element, type=SC8R
  1,   34,   35,   13,   12,   23,   24,    2,    1
  2,   35,   36,   14,   13,   24,   25,    3,    2
  3,   36,   37,   15,   14,   25,   26,    4,    3
  4,   37,   38,   16,   15,   26,   27,    5,    4
  5,   38,   39,   17,   16,   27,   28,    6,    5
  6,   39,   40,   18,   17,   28,   29,    7,    6
  7,   40,   41,   19,   18,   29,   30,    8,    7
  8,   41,   42,   20,   19,   30,   31,    9,    8
  9,   42,   43,   21,   20,   31,   32,   10,    9
 10,   43,   44,   22,   21,   32,   33,   11,   10
 11,   56,   57,   35,   34,   45,   46,   24,   23
 12,   57,   58,   36,   35,   46,   47,   25,   24
 13,   58,   59,   37,   36,   47,   48,   26,   25
 14,   59,   60,   38,   37,   48,   49,   27,   26
 15,   60,   61,   39,   38,   49,   50,   28,   27
 16,   61,   62,   40,   39,   50,   51,   29,   28
 17,   62,   63,   41,   40,   51,   52,   30,   29
 18,   63,   64,   42,   41,   52,   53,   31,   30
 19,   64,   65,   43,   42,   53,   54,   32,   31
 20,   65,   66,   44,   43,   54,   55,   33,   32
** ... 580 like lines cut
*Nset, nset=_PickedSet3, internal, generate
    1,  1342,     1
*Elset, elset=_PickedSet3, internal, generate
   1,  600,    1
*Elset, elset=_topsurf_S2, internal, generate
   1,  600,    1
*Surface, type=ELEMENT, name=topsurf
_topsurf_S2, S2
*Orientation, name=Ori-1
          1.,           0.,           0.,           0.,           1.,           0.
3, 0.
** Region: (CompositeLayup-1-1: Generated From Layup)
*Elset, elset=CompositeLayup-1-1, generate
   1,  600,    1
** Section: CompositeLayup-1-1
*Shell Section, elset=CompositeLayup-1-1, composite, orientation=Ori-1, stack direction=3, layup=CompositeLayup-1
1., 3, Material-1, 0., Ply-1
*End Part
**  
*Part, name=fnm
*Node
      1,         30.5,           0.,           0.
      2,         30.5,           0.,  0.200000003
      3,           0.,           0.,  0.200000003
      4,           0.,           0.,           0.
      5,         30.5,          25.,  0.200000003
      6,           0.,          25.,  0.200000003
      7,           0.,          25.,           0.
      8,         30.5,          25.,           0.
      9,         150.,          25.,  0.200000003
     10,         150.,           0.,  0.200000003
     11,         150.,           0.,           0.
     12,         150.,          25.,           0.
     13,    27.958334,           0.,  0.200000003
     14,    25.416666,           0.,  0.200000003
     15,       22.875,           0.,  0.200000003
     16,    20.333334,           0.,  0.200000003
     17,    17.791666,           0.,  0.200000003
     18,        15.25,           0.,  0.200000003
     19,    12.708333,           0.,  0.200000003
     20,    10.166667,           0.,  0.200000003
** ... 1322 like lines cut
*Element, type=C3D8R
  1,  74, 299,  34,   1,  84, 398,  13,   2
  2, 299, 300,  33,  34, 398, 399,  14,  13
  3, 300, 301,  32,  33, 399, 400,  15,  14
  4, 301, 302,  31,  32, 400, 401,  16,  15
  5, 302, 303,  30,  31, 401, 402,  17,  16
  6, 303, 304,  29,  30, 402, 403,  18,  17
  7, 304, 305,  28,  29, 403, 404,  19,  18
  8, 305, 306,  27,  28, 404, 405,  20,  19
  9, 306, 307,  26,  27, 405, 406,  21,  20
 10, 307, 308,  25,  26, 406, 407,  22,  21
 11, 308, 309,  24,  25, 407, 408,  23,  22
 12, 309,  57,   4,  24, 408,  83,   3,  23
 13,  73, 310, 299,  74,  85, 409, 398,  84
 14, 310, 311, 300, 299, 409, 410, 399, 398
 15, 311, 312, 301, 300, 410, 411, 400, 399
 16, 312, 313, 302, 301, 411, 412, 401, 400
 17, 313, 314, 303, 302, 412, 413, 402, 401
 18, 314, 315, 304, 303, 413, 414, 403, 402
 19, 315, 316, 305, 304, 414, 415, 404, 403
 20, 316, 317, 306, 305, 415, 416, 405, 404
** ... 580 like lines cut
*Elset, elset=predelam, generate
   1,  120,    1
*Nset, nset=topsurf_tie
   2,   3,   5,   6,   9,  10,  13,  14,  15,  16,  17,  18,  19,  20,  21,  22
  23,  35,  36,  37,  38,  39,  40,  41,  42,  43,  44,  45,  75,  76,  77,  78
  79,  80,  81,  82,  83,  84,  85,  86,  87,  88,  89,  90,  91,  92,  93,  94
  95,  96,  97,  98,  99, 100, 101, 158, 159, 160, 161, 162, 163, 164, 165, 166
 167, 168, 169, 170, 171, 172, 173, 174, 175, 176, 177, 178, 179, 180, 181, 182
 183, 184, 185, 186, 187, 188, 189, 190, 191, 192, 193, 194, 195, 196, 197, 198
 199, 200, 201, 202, 203, 204, 252, 253, 254, 255, 256, 257, 258, 259, 260, 261
 262, 263, 264, 265, 266, 267, 268, 269, 270, 271, 272, 273, 274, 275, 276, 277
 278, 279, 280, 281, 282, 283, 284, 285, 286, 287, 288, 289, 290, 291, 292, 293
 294, 295, 296, 297, 298, 398, 399, 400, 401, 402, 403, 404, 405, 406, 407, 408
 409, 410, 411, 412, 413, 414, 415, 416, 417, 418, 419, 420, 421, 422, 423, 424
 425, 426, 427, 428, 429, 430, 431, 432, 433, 434, 435, 436, 437, 438, 439, 440
 441, 442, 443, 444, 445, 446, 447, 448, 449, 450, 451, 452, 453, 454, 455, 456
 457, 458, 459, 460, 461, 462, 463, 464, 465, 466, 467, 468, 469, 470, 471, 472
 473, 474, 475, 476, 477, 478, 479, 480, 481, 482, 483, 484, 485, 486, 487, 488
 489, 490, 491, 492, 493, 494, 495, 496, 497, 498, 499, 500, 501, 502, 503, 504
 505, 506, 507, 508, 509, 510, 511, 512, 513, 514, 515, 516, 517, 518, 519, 520
 521, 522, 523, 524, 525, 526, 527, 528, 529, 530, 531, 532, 533, 534, 535, 536
 537, 538, 539, 540, 541, 542, 543, 544, 545, 546, 547, 548, 549, 550, 551, 552
 553, 554, 555, 556, 557, 558, 559, 560, 561, 562, 563, 564, 565, 566, 567, 568
** ... 22 like lines cut
*Nset, nset=botsurf_tie
    1,    4,    7,    8,   11,   12,   24,   25,   26,   27,   28,   29,   30,   31,   32,   33
   34,   46,   47,   48,   49,   50,   51,   52,   53,   54,   55,   56,   57,   58,   59,   60
   61,   62,   63,   64,   65,   66,   67,   68,   69,   70,   71,   72,   73,   74,  102,  103
  104,  105,  106,  107,  108,  109,  110,  111,  112,  113,  114,  115,  116,  117,  118,  119
  120,  121,  122,  123,  124,  125,  126,  127,  128,  129,  130,  131,  132,  133,  134,  135
  136,  137,  138,  139,  140,  141,  142,  143,  144,  145,  146,  147,  148,  149,  150,  151
  152,  153,  154,  155,  156,  157,  205,  206,  207,  208,  209,  210,  211,  212,  213,  214
  215,  216,  217,  218,  219,  220,  221,  222,  223,  224,  225,  226,  227,  228,  229,  230
  231,  232,  233,  234,  235,  236,  237,  238,  239,  240,  241,  242,  243,  244,  245,  246
  247,  248,  249,  250,  251,  299,  300,  301,  302,  303,  304,  305,  306,  307,  308,  309
  310,  311,  312,  313,  314,  315,  316,  317,  318,  319,  320,  321,  322,  323,  324,  325
  326,  327,  328,  329,  330,  331,  332,  333,  334,  335,  336,  337,  338,  339,  340,  341
  342,  343,  344,  345,  346,  347,  348,  349,  350,  351,  352,  353,  354,  355,  356,  357
  358,  359,  360,  361,  362,  363,  364,  365,  366,  367,  368,  369,  370,  371,  372,  373
  374,  375,  376,  377,  378,  379,  380,  381,  382,  383,  384,  385,  386,  387,  388,  389
  390,  391,  392,  393,  394,  395,  396,  397,  920,  921,  922,  923,  924,  925,  926,  927
  928,  929,  930,  931,  932,  933,  934,  935,  936,  937,  938,  939,  940,  941,  942,  943
  944,  945,  946,  947,  948,  949,  950,  951,  952,  953,  954,  955,  956,  957,  958,  959
  960,  961,  962,  963,  964,  965,  966,  967,  968,  969,  970,  971,  972,  973,  974,  975
  976,  977,  978,  979,  980,  981,  982,  983,  984,  985,  986,  987,  988,  989,  990,  991
** ... 22 like lines cut
*End Part
**  
*Part, name=top
*Node
      1,         150.,          25.,   1.39999998
      2,         150.,         22.5,   1.39999998
      3,         150.,          20.,   1.39999998
      4,         150.,         17.5,   1.39999998
      5,         150.,          15.,   1.39999998
      6,         150.,         12.5,   1.39999998
      7,         150.,          10.,   1.39999998
      8,         150.,          7.5,   1.39999998
      9,         150.,           5.,   1.39999998
     10,         150.,          2.5,   1.39999998
     11,         150.,           0.,   1.39999998
     12,         150.,          25.,           0.
     13,         150.,         22.5,           0.
     14,         150.,          20.,           0.
     15,         150.,         17.5,           0.
     16,         150.,          15.,           0.
     17,         150.,         12.5,           0.
     18,         150.,          10.,           0.
     19,         150.,          7.5,           0.
     20,         150.,           5.,           0.
** ... 1322 like lines cut
*Element, type=SC8R
  1,   34,   35,   13,   12,   23,   24,    2,    1
  2,   35,   36,   14,   13,   24,   25,    3,    2
  3,   36,   37,   15,   14,   25,   26,    4,    3
  4,   37,   38,   16,   15,   26,   27,    5,    4
  5,   38,   39,   17,   16,   27,   28,    6,    5
  6,   39,   40,   18,   17,   28,   29,    7,    6
  7,   40,   41,   19,   18,   29,   30,    8,    7
  8,   41,   42,   20,   19,   30,   31,    9,    8
  9,   42,   43,   21,   20,   31,   32,   10,    9
 10,   43,   44,   22,   21,   32,   33,   11,   10
 11,   56,   57,   35,   34,   45,   46,   24,   23
 12,   57,   58,   36,   35,   46,   47,   25,   24
 13,   58,   59,   37,   36,   47,   48,   26,   25
 14,   59,   60,   38,   37,   48,   49,   27,   26
 15,   60,   61,   39,   38,   49,   50,   28,   27
 16,   61,   62,   40,   39,   50,   51,   29,   28
 17,   62,   63,   41,   40,   51,   52,   30,   29
 18,   63,   64,   42,   41,   52,   53,   31,   30
 19,   64,   65,   43,   42,   53,   54,   32,   31
 20,   65,   66,   44,   43,   54,   55,   33,   32
** ... 580 like lines cut
*Nset, nset=_PickedSet3, internal, generate
    1,  1342,     1
*Elset, elset=_PickedSet3, internal, generate
   1,  600,    1
*Elset, elset=_botsurf_S1, internal, generate
   1,  600,    1
*Surface, type=ELEMENT, name=botsurf
_botsurf_S1, S1
*Orientation, name=Ori-1
          1.,           0.,           0.,           0.,           1.,           0.
3, 0.
** Region: (CompositeLayup-1-1: Generated From Layup)
*Elset, elset=CompositeLayup-1-1, generate
   1,  600,    1
** Section: CompositeLayup-1-1
*Shell Section, elset=CompositeLayup-1-1, composite, orientation=Ori-1, stack direction=3, layup=CompositeLayup-1
1., 3, Material-1, 0., Ply-1
*End Part
**  
**
** ASSEMBLY
**
*Assembly, name=Assembly
**  
*Instance, name=bot-1, part=bot
*End Instance
**  
*Instance, name=fnm-1, part=fnm
          0.,           0.,          1.4
*End Instance
**  
*Instance, name=top-1, part=top
          0.,           0.,          1.6
*End Instance
**  
*Nset, nset=load, instance=top-1, generate
 1321,  1331,     1
*Elset, elset=load, instance=top-1, generate
 591,  600,    1
*Nset, nset=fix, instance=bot-1, generate
 1332,  1342,     1
*Elset, elset=fix, instance=bot-1, generate
 591,  600,    1
*Surface, type=NODE, name=fnm-1_botsurf_tie_CNS_, internal
fnm-1.botsurf_tie, 1.
*Surface, type=NODE, name=fnm-1_topsurf_tie_CNS_, internal
fnm-1.topsurf_tie, 1.
** Constraint: Constraint-1
*Tie, name=Constraint-1, adjust=yes
fnm-1_botsurf_tie_CNS_, bot-1.topsurf
** Constraint: Constraint-2
*Tie, name=Constraint-2, adjust=yes
fnm-1_topsurf_tie_CNS_, top-1.botsurf
*End Assembly
** 
** MATERIALS
** 
*Material, name=Material-1
*Elastic, type=ENGINEERING CONSTANTS
139400.,10160.,10160.,   0.3,   0.3, 0.436, 4600., 4600.
 3540.,
** 
** BOUNDARY CONDITIONS
** 
** Name: fix-bot Type: Displacement/Rotation
*Boundary
fix, 1, 1
fix, 2, 2
fix, 3, 3
** Name: fix-top Type: Displacement/Rotation
*Boundary
load, 1, 1
load, 2, 2
** ----------------------------------------------------------------
** 
** STEP: loading
** 
*Step, name=loading, inc=10000
*Static
0.002, 4., 0.0001, 0.002
** 
** BOUNDARY CONDITIONS
** 
** Name: load Type: Velocity/Angular velocity
*Boundary, type=VELOCITY
load, 3, 3, 1.
** 
** OUTPUT REQUESTS
** 
*Restart, write, frequency=0
** 
** FIELD OUTPUT: F-Output-1
** 
*Output, field
*Node Output
RF, U
*Element Output, directions=YES
EE, S
** 
** HISTORY OUTPUT: H-Output-1
** 
*Output, history, variable=PRESELECT
*End Step
