*Heading
** Job name: DCB-mesh4 Model name: DCB-mesh4
** Generated by: Abaqus/CAE 6.12-2
*Preprint, echo=NO, model=NO, history=NO, contact=NO
**
** PARTS
**
*Part, name=bot
*Node
      1,         150.,          25.,   1.39999998
      2,         150.,          24.,   1.39999998
      3,         150.,          23.,   1.39999998
      4,         150.,          22.,   1.39999998
      5,         150.,          21.,   1.39999998
      6,         150.,          20.,   1.39999998
      7,         150.,          19.,   1.39999998
      8,         150.,          18.,   1.39999998
      9,         150.,          17.,   1.39999998
     10,         150.,          16.,   1.39999998
     11,         150.,          15.,   1.39999998
     12,         150.,          14.,   1.39999998
     13,         150.,          13.,   1.39999998
     14,         150.,          12.,   1.39999998
     15,         150.,          11.,   1.39999998
     16,         150.,          10.,   1.39999998
     17,         150.,           9.,   1.39999998
     18,         150.,           8.,   1.39999998
     19,         150.,           7.,   1.39999998
     20,         150.,           6.,   1.39999998
** ... 7832 like lines cut
*Element, type=SC8R
   1,   79,   80,   28,   27,   53,   54,    2,    1
   2,   80,   81,   29,   28,   54,   55,    3,    2
   3,   81,   82,   30,   29,   55,   56,    4,    3
   4,   82,   83,   31,   30,   56,   57,    5,    4
   5,   83,   84,   32,   31,   57,   58,    6,    5
   6,   84,   85,   33,   32,   58,   59,    7,    6
   7,   85,   86,   34,   33,   59,   60,    8,    7
   8,   86,   87,   35,   34,   60,   61,    9,    8
   9,   87,   88,   36,   35,   61,   62,   10,    9
  10,   88,   89,   37,   36,   62,   63,   11,   10
  11,   89,   90,   38,   37,   63,   64,   12,   11
  12,   90,   91,   39,   38,   64,   65,   13,   12
  13,   91,   92,   40,   39,   65,   66,   14,   13
  14,   92,   93,   41,   40,   66,   67,   15,   14
  15,   93,   94,   42,   41,   67,   68,   16,   15
  16,   94,   95,   43,   42,   68,   69,   17,   16
  17,   95,   96,   44,   43,   69,   70,   18,   17
  18,   96,   97,   45,   44,   70,   71,   19,   18
  19,   97,   98,   46,   45,   71,   72,   20,   19
  20,   98,   99,   47,   46,   72,   73,   21,   20
** ... 3730 like lines cut
*Nset, nset=_PickedSet3, internal, generate
    1,  7852,     1
*Elset, elset=_PickedSet3, internal, generate
    1,  3750,     1
*Elset, elset=_topsurf_S2, internal, generate
    1,  3750,     1
*Surface, type=ELEMENT, name=topsurf
_topsurf_S2, S2
*Orientation, name=Ori-1
          1.,           0.,           0.,           0.,           1.,           0.
3, 0.
** Region: (CompositeLayup-1-1: Generated From Layup)
*Elset, elset=CompositeLayup-1-1, generate
    1,  3750,     1
** Section: CompositeLayup-1-1
*Shell Section, elset=CompositeLayup-1-1, composite, orientation=Ori-1, stack direction=3, layup=CompositeLayup-1
1., 3, Material-1, 0., Ply-1
*End Part
**  
*Part, name=fnm
*Node
      1,         50.5,          25.,  0.200000003
      2,         50.5,          25.,           0.
      3,         30.5,          25.,           0.
      4,         30.5,          25.,  0.200000003
      5,         50.5,           0.,           0.
      6,         30.5,           0.,           0.
      7,         30.5,           0.,  0.200000003
      8,         50.5,           0.,  0.200000003
      9,           0.,           0.,  0.200000003
     10,           0.,           0.,           0.
     11,           0.,          25.,  0.200000003
     12,           0.,          25.,           0.
     13,         150.,          25.,  0.200000003
     14,         150.,           0.,  0.200000003
     15,         150.,           0.,           0.
     16,         150.,          25.,           0.
     17,          50.,          25.,           0.
     18,         49.5,          25.,           0.
     19,          49.,          25.,           0.
     20,         48.5,          25.,           0.
** ... 5856 like lines cut
*Element, type=C3D8R
   1, 1581,  245,    2,   17,  645,  220,    1,   94
   2, 1582, 1581,   17,   18,  646,  645,   94,   93
   3, 1583, 1582,   18,   19,  647,  646,   93,   92
   4, 1584, 1583,   19,   20,  648,  647,   92,   91
   5, 1585, 1584,   20,   21,  649,  648,   91,   90
   6, 1586, 1585,   21,   22,  650,  649,   90,   89
   7, 1587, 1586,   22,   23,  651,  650,   89,   88
   8, 1588, 1587,   23,   24,  652,  651,   88,   87
   9, 1589, 1588,   24,   25,  653,  652,   87,   86
  10, 1590, 1589,   25,   26,  654,  653,   86,   85
  11, 1591, 1590,   26,   27,  655,  654,   85,   84
  12, 1592, 1591,   27,   28,  656,  655,   84,   83
  13, 1593, 1592,   28,   29,  657,  656,   83,   82
  14, 1594, 1593,   29,   30,  658,  657,   82,   81
  15, 1595, 1594,   30,   31,  659,  658,   81,   80
  16, 1596, 1595,   31,   32,  660,  659,   80,   79
  17, 1597, 1596,   32,   33,  661,  660,   79,   78
  18, 1598, 1597,   33,   34,  662,  661,   78,   77
  19, 1599, 1598,   34,   35,  663,  662,   77,   76
  20, 1600, 1599,   35,   36,  664,  663,   76,   75
** ... 2780 like lines cut
*Nset, nset=topsurf_tie
    1,    4,    7,    8,    9,   11,   13,   14,   56,   57,   58,   59,   60,   61,   62,   63
   64,   65,   66,   67,   68,   69,   70,   71,   72,   73,   74,   75,   76,   77,   78,   79
   80,   81,   82,   83,   84,   85,   86,   87,   88,   89,   90,   91,   92,   93,   94,  134
  135,  136,  137,  138,  139,  140,  141,  142,  143,  144,  145,  146,  147,  148,  149,  150
  151,  152,  153,  154,  155,  156,  157,  158,  159,  160,  161,  162,  163,  164,  165,  166
  167,  168,  169,  170,  171,  172,  173,  174,  175,  176,  177,  178,  179,  180,  181,  182
  183,  184,  185,  186,  187,  188,  189,  190,  191,  192,  193,  194,  195,  196,  197,  198
  199,  200,  201,  202,  203,  204,  205,  206,  207,  208,  209,  210,  211,  212,  213,  214
  215,  216,  217,  218,  219,  220,  269,  270,  271,  272,  273,  274,  275,  276,  277,  278
  279,  280,  281,  282,  283,  284,  285,  286,  287,  288,  289,  311,  312,  313,  314,  315
  316,  317,  318,  319,  320,  321,  322,  323,  324,  325,  326,  327,  328,  329,  330,  331
  377,  378,  379,  380,  381,  382,  383,  384,  385,  386,  387,  388,  389,  390,  391,  392
  393,  394,  395,  396,  397,  398,  399,  400,  401,  402,  403,  404,  405,  406,  407,  408
  409,  410,  411,  412,  413,  414,  415,  416,  417,  418,  419,  420,  421,  422,  423,  424
  498,  499,  500,  501,  502,  503,  504,  505,  506,  507,  508,  509,  510,  511,  512,  513
  514,  515,  516,  517,  518,  519,  520,  521,  522,  523,  524,  525,  526,  527,  528,  529
  530,  531,  532,  533,  534,  535,  536,  537,  538,  539,  540,  541,  542,  543,  544,  545
  546,  596,  597,  598,  599,  600,  601,  602,  603,  604,  605,  606,  607,  608,  609,  610
  611,  612,  613,  614,  615,  616,  617,  618,  619,  620,  621,  622,  623,  624,  625,  626
  627,  628,  629,  630,  631,  632,  633,  634,  635,  636,  637,  638,  639,  640,  641,  642
** ... 164 like lines cut
*Elset, elset=predelam, generate
 1001,  1550,     1
*Nset, nset=botsurf_tie
    2,    3,    5,    6,   10,   12,   15,   16,   17,   18,   19,   20,   21,   22,   23,   24
   25,   26,   27,   28,   29,   30,   31,   32,   33,   34,   35,   36,   37,   38,   39,   40
   41,   42,   43,   44,   45,   46,   47,   48,   49,   50,   51,   52,   53,   54,   55,   95
   96,   97,   98,   99,  100,  101,  102,  103,  104,  105,  106,  107,  108,  109,  110,  111
  112,  113,  114,  115,  116,  117,  118,  119,  120,  121,  122,  123,  124,  125,  126,  127
  128,  129,  130,  131,  132,  133,  221,  222,  223,  224,  225,  226,  227,  228,  229,  230
  231,  232,  233,  234,  235,  236,  237,  238,  239,  240,  241,  242,  243,  244,  245,  246
  247,  248,  249,  250,  251,  252,  253,  254,  255,  256,  257,  258,  259,  260,  261,  262
  263,  264,  265,  266,  267,  268,  290,  291,  292,  293,  294,  295,  296,  297,  298,  299
  300,  301,  302,  303,  304,  305,  306,  307,  308,  309,  310,  332,  333,  334,  335,  336
  337,  338,  339,  340,  341,  342,  343,  344,  345,  346,  347,  348,  349,  350,  351,  352
  353,  354,  355,  356,  357,  358,  359,  360,  361,  362,  363,  364,  365,  366,  367,  368
  369,  370,  371,  372,  373,  374,  375,  376,  425,  426,  427,  428,  429,  430,  431,  432
  433,  434,  435,  436,  437,  438,  439,  440,  441,  442,  443,  444,  445,  446,  447,  448
  449,  450,  451,  452,  453,  454,  455,  456,  457,  458,  459,  460,  461,  462,  463,  464
  465,  466,  467,  468,  469,  470,  471,  472,  473,  474,  475,  476,  477,  478,  479,  480
  481,  482,  483,  484,  485,  486,  487,  488,  489,  490,  491,  492,  493,  494,  495,  496
  497,  547,  548,  549,  550,  551,  552,  553,  554,  555,  556,  557,  558,  559,  560,  561
  562,  563,  564,  565,  566,  567,  568,  569,  570,  571,  572,  573,  574,  575,  576,  577
  578,  579,  580,  581,  582,  583,  584,  585,  586,  587,  588,  589,  590,  591,  592,  593
** ... 164 like lines cut
*End Part
**  
*Part, name=top
*Node
      1,         150.,          25.,   1.39999998
      2,         150.,          24.,   1.39999998
      3,         150.,          23.,   1.39999998
      4,         150.,          22.,   1.39999998
      5,         150.,          21.,   1.39999998
      6,         150.,          20.,   1.39999998
      7,         150.,          19.,   1.39999998
      8,         150.,          18.,   1.39999998
      9,         150.,          17.,   1.39999998
     10,         150.,          16.,   1.39999998
     11,         150.,          15.,   1.39999998
     12,         150.,          14.,   1.39999998
     13,         150.,          13.,   1.39999998
     14,         150.,          12.,   1.39999998
     15,         150.,          11.,   1.39999998
     16,         150.,          10.,   1.39999998
     17,         150.,           9.,   1.39999998
     18,         150.,           8.,   1.39999998
     19,         150.,           7.,   1.39999998
     20,         150.,           6.,   1.39999998
** ... 7832 like lines cut
*Element, type=SC8R
   1,   79,   80,   28,   27,   53,   54,    2,    1
   2,   80,   81,   29,   28,   54,   55,    3,    2
   3,   81,   82,   30,   29,   55,   56,    4,    3
   4,   82,   83,   31,   30,   56,   57,    5,    4
   5,   83,   84,   32,   31,   57,   58,    6,    5
   6,   84,   85,   33,   32,   58,   59,    7,    6
   7,   85,   86,   34,   33,   59,   60,    8,    7
   8,   86,   87,   35,   34,   60,   61,    9,    8
   9,   87,   88,   36,   35,   61,   62,   10,    9
  10,   88,   89,   37,   36,   62,   63,   11,   10
  11,   89,   90,   38,   37,   63,   64,   12,   11
  12,   90,   91,   39,   38,   64,   65,   13,   12
  13,   91,   92,   40,   39,   65,   66,   14,   13
  14,   92,   93,   41,   40,   66,   67,   15,   14
  15,   93,   94,   42,   41,   67,   68,   16,   15
  16,   94,   95,   43,   42,   68,   69,   17,   16
  17,   95,   96,   44,   43,   69,   70,   18,   17
  18,   96,   97,   45,   44,   70,   71,   19,   18
  19,   97,   98,   46,   45,   71,   72,   20,   19
  20,   98,   99,   47,   46,   72,   73,   21,   20
** ... 3730 like lines cut
*Nset, nset=_PickedSet3, internal, generate
    1,  7852,     1
*Elset, elset=_PickedSet3, internal, generate
    1,  3750,     1
*Elset, elset=_botsurf_S1, internal, generate
    1,  3750,     1
*Surface, type=ELEMENT, name=botsurf
_botsurf_S1, S1
*Orientation, name=Ori-1
          1.,           0.,           0.,           0.,           1.,           0.
3, 0.
** Region: (CompositeLayup-1-1: Generated From Layup)
*Elset, elset=CompositeLayup-1-1, generate
    1,  3750,     1
** Section: CompositeLayup-1-1
*Shell Section, elset=CompositeLayup-1-1, composite, orientation=Ori-1, stack direction=3, layup=CompositeLayup-1
1., 3, Material-1, 0., Ply-1
*End Part
**  
**
** ASSEMBLY
**
*Assembly, name=Assembly
**  
*Instance, name=bot-1, part=bot
*End Instance
**  
*Instance, name=fnm-1, part=fnm
          0.,           0.,          1.4
*End Instance
**  
*Instance, name=top-1, part=top
          0.,           0.,          1.6
*End Instance
**  
*Nset, nset=load, instance=top-1, generate
 7801,  7826,     1
*Elset, elset=load, instance=top-1, generate
 3726,  3750,     1
*Nset, nset=fix, instance=bot-1, generate
 7827,  7852,     1
*Elset, elset=fix, instance=bot-1, generate
 3726,  3750,     1
*Surface, type=NODE, name=fnm-1_botsurf_tie_CNS_, internal
fnm-1.botsurf_tie, 1.
*Surface, type=NODE, name=fnm-1_topsurf_tie_CNS_, internal
fnm-1.topsurf_tie, 1.
** Constraint: Constraint-1
*Tie, name=Constraint-1, adjust=yes
fnm-1_botsurf_tie_CNS_, bot-1.topsurf
** Constraint: Constraint-2
*Tie, name=Constraint-2, adjust=yes
fnm-1_topsurf_tie_CNS_, top-1.botsurf
*End Assembly
** 
** MATERIALS
** 
*Material, name=Material-1
*Elastic, type=ENGINEERING CONSTANTS
139400.,10160.,10160.,   0.3,   0.3, 0.436, 4600., 4600.
 3540.,
** 
** BOUNDARY CONDITIONS
** 
** Name: fix-bot Type: Displacement/Rotation
*Boundary
fix, 1, 1
fix, 2, 2
fix, 3, 3
** Name: fix-top Type: Displacement/Rotation
*Boundary
load, 1, 1
load, 2, 2
** ----------------------------------------------------------------
** 
** STEP: loading
** 
*Step, name=loading, inc=10000
*Static
0.002, 4., 0.0001, 0.002
** 
** BOUNDARY CONDITIONS
** 
** Name: load Type: Velocity/Angular velocity
*Boundary, type=VELOCITY
load, 3, 3, 1.
** 
** OUTPUT REQUESTS
** 
*Restart, write, frequency=0
** 
** FIELD OUTPUT: F-Output-1
** 
*Output, field
*Node Output
RF, U
*Element Output, directions=YES
EE, S
** 
** HISTORY OUTPUT: H-Output-1
** 
*Output, history, variable=PRESELECT
*End Step
