*Heading
** Job name: Pnc60clt-r1 Model name: Pnc60clt-r1
** Generated by: Abaqus/CAE 6.12-2
*Preprint, echo=NO, model=NO, history=NO, contact=NO
**
** PARTS
**
*Part, name=bot-part
*Node
      1,   58.2999992,   12.6999998,           0.
      2,   58.2999992,   12.6999998,    3.4289999
      3,          83.,   12.6999998,    3.4289999
      4,          83.,   12.6999998,           0.
      5,   58.2999992,           0.,    3.4289999
      6,          83.,           0.,    3.4289999
      7,          83.,           0.,           0.
      8,   58.2999992,           0.,           0.
      9,          53.,   12.6999998,           0.
     10,          53.,   12.6999998,    3.4289999
     11,          53.,           0.,           0.
     12,          53.,           0.,    3.4289999
     13,           0.,           0.,    3.4289999
     14,           0.,           0.,           0.
     15,           0.,   12.6999998,    3.4289999
     16,           0.,   12.6999998,           0.
     17,   114.300003,   12.6999998,    3.4289999
     18,   114.300003,           0.,    3.4289999
     19,   114.300003,           0.,           0.
     20,   114.300003,   12.6999998,           0.
** ... 7208 like lines cut
*Element, type=C3D8R
   1,  260,  797,  116,    1,  285, 1949,   21,    2
   2,  797,  798,  115,  116, 1949, 1950,   22,   21
   3,  798,  799,  114,  115, 1950, 1951,   23,   22
   4,  799,  800,  113,  114, 1951, 1952,   24,   23
   5,  800,  801,  112,  113, 1952, 1953,   25,   24
   6,  801,  802,  111,  112, 1953, 1954,   26,   25
   7,  802,  803,  110,  111, 1954, 1955,   27,   26
   8,  803,  804,  109,  110, 1955, 1956,   28,   27
   9,  804,  805,  108,  109, 1956, 1957,   29,   28
  10,  805,  806,  107,  108, 1957, 1958,   30,   29
  11,  806,  807,  106,  107, 1958, 1959,   31,   30
  12,  807,  808,  105,  106, 1959, 1960,   32,   31
  13,  808,  809,  104,  105, 1960, 1961,   33,   32
  14,  809,  810,  103,  104, 1961, 1962,   34,   33
  15,  810,  811,  102,  103, 1962, 1963,   35,   34
  16,  811,  812,  101,  102, 1963, 1964,   36,   35
  17,  812,  813,  100,  101, 1964, 1965,   37,   36
  18,  813,  814,   99,  100, 1965, 1966,   38,   37
  19,  814,  815,   98,   99, 1966, 1967,   39,   38
  20,  815,  816,   97,   98, 1967, 1968,   40,   39
** ... 3430 like lines cut
*Nset, nset=_PickedSet37, internal, generate
    1,  7228,     1
*Elset, elset=_PickedSet37, internal, generate
    1,  3450,     1
*Elset, elset=_topsurf_S2, internal, generate
    1,  3450,     1
*Surface, type=ELEMENT, name=topsurf
_topsurf_S2, S2
*Orientation, name=Ori-1
          1.,           0.,           0.,           0.,           1.,           0.
3, 0.
** Region: (CompositeLayup-1-1: Generated From Layup)
*Elset, elset=CompositeLayup-1-1, generate
    1,  3450,     1
** Section: CompositeLayup-1-1
*Solid Section, elset=CompositeLayup-1-1, composite, orientation=Ori-1, stack direction=3, layup=CompositeLayup-1
0.037037, 1, Material-1, 60., Ply-1
0.037037, 1, Material-1, 0., Ply-2
0.037037, 1, Material-1, 60., Ply-3
0.037037, 1, Material-1, 60., Ply-4
0.037037, 1, Material-1, 60., Ply-5
0.037037, 1, Material-1, -60., Ply-6
0.037037, 1, Material-1, -60., Ply-7
0.037037, 1, Material-1, -60., Ply-8
0.037037, 1, Material-1, -60., Ply-9
0.037037, 1, Material-1, -30., Ply-10
0.037037, 1, Material-1, -60., Ply-11
0.037037, 1, Material-1, -30., Ply-12
0.037037, 1, Material-1, 90., Ply-13
0.037037, 1, Material-1, -30., Ply-14
0.037037, 1, Material-1, 30., Ply-15
0.037037, 1, Material-1, 90., Ply-16
0.037037, 1, Material-1, 30., Ply-17
0.037037, 1, Material-1, 60., Ply-18
0.037037, 1, Material-1, 30., Ply-19
0.037037, 1, Material-1, 60., Ply-20
** ... 7 like lines cut
*End Part
**  
*Part, name=fnm
*Node
      1,   58.2999992,   12.6999998,           0.
      2,   58.2999992,   12.6999998,  0.762000024
      3,          83.,   12.6999998,  0.762000024
      4,          83.,   12.6999998,           0.
      5,   58.2999992,           0.,  0.762000024
      6,          83.,           0.,  0.762000024
      7,          83.,           0.,           0.
      8,   58.2999992,           0.,           0.
      9,          53.,   12.6999998,           0.
     10,          53.,   12.6999998,  0.762000024
     11,          53.,           0.,           0.
     12,          53.,           0.,  0.762000024
     13,           0.,           0.,  0.762000024
     14,           0.,           0.,           0.
     15,           0.,   12.6999998,  0.762000024
     16,           0.,   12.6999998,           0.
     17,   114.300003,   12.6999998,  0.762000024
     18,   114.300003,           0.,  0.762000024
     19,   114.300003,           0.,           0.
     20,   114.300003,   12.6999998,           0.
** ... 7208 like lines cut
*Element, type=C3D8R
   1,  260,  797,  116,    1,  285, 1949,   21,    2
   2,  797,  798,  115,  116, 1949, 1950,   22,   21
   3,  798,  799,  114,  115, 1950, 1951,   23,   22
   4,  799,  800,  113,  114, 1951, 1952,   24,   23
   5,  800,  801,  112,  113, 1952, 1953,   25,   24
   6,  801,  802,  111,  112, 1953, 1954,   26,   25
   7,  802,  803,  110,  111, 1954, 1955,   27,   26
   8,  803,  804,  109,  110, 1955, 1956,   28,   27
   9,  804,  805,  108,  109, 1956, 1957,   29,   28
  10,  805,  806,  107,  108, 1957, 1958,   30,   29
  11,  806,  807,  106,  107, 1958, 1959,   31,   30
  12,  807,  808,  105,  106, 1959, 1960,   32,   31
  13,  808,  809,  104,  105, 1960, 1961,   33,   32
  14,  809,  810,  103,  104, 1961, 1962,   34,   33
  15,  810,  811,  102,  103, 1962, 1963,   35,   34
  16,  811,  812,  101,  102, 1963, 1964,   36,   35
  17,  812,  813,  100,  101, 1964, 1965,   37,   36
  18,  813,  814,   99,  100, 1965, 1966,   38,   37
  19,  814,  815,   98,   99, 1966, 1967,   39,   38
  20,  815,  816,   97,   98, 1967, 1968,   40,   39
** ... 3430 like lines cut
*Elset, elset=predelam, generate
 1501,  2725,     1
*Nset, nset=topsurf_tie
    2,    3,    5,    6,   10,   12,   13,   15,   17,   18,   21,   22,   23,   24,   25,   26
   27,   28,   29,   30,   31,   32,   33,   34,   35,   36,   37,   38,   39,   40,   41,   42
   43,   44,   45,   46,   47,   48,   49,   50,   51,   52,   53,   54,   55,   56,   57,   58
   59,   60,   61,   62,   63,   64,   65,   66,   67,   68,  117,  118,  119,  120,  121,  122
  123,  124,  125,  126,  127,  128,  129,  130,  131,  132,  133,  134,  135,  136,  137,  138
  139,  140,  141,  142,  143,  144,  145,  146,  147,  148,  149,  150,  151,  152,  153,  154
  155,  156,  157,  158,  159,  160,  161,  162,  163,  164,  261,  262,  263,  264,  265,  266
  267,  268,  269,  270,  271,  272,  273,  274,  275,  276,  277,  278,  279,  280,  281,  282
  283,  284,  285,  286,  287,  288,  289,  290,  291,  292,  293,  294,  295,  296,  297,  298
  299,  300,  301,  302,  303,  304,  305,  306,  307,  308,  319,  320,  321,  322,  323,  324
  325,  326,  327,  328,  339,  340,  341,  342,  343,  344,  345,  346,  347,  348,  349,  350
  351,  352,  353,  354,  355,  356,  357,  358,  359,  360,  361,  362,  363,  364,  365,  366
  367,  368,  369,  370,  371,  372,  397,  398,  399,  400,  401,  402,  403,  404,  405,  406
  407,  408,  409,  410,  411,  412,  413,  414,  415,  416,  417,  418,  419,  420,  421,  422
  423,  424,  425,  426,  427,  428,  429,  430,  431,  432,  433,  434,  435,  436,  437,  438
  439,  440,  441,  442,  443,  444,  493,  494,  495,  496,  497,  498,  499,  500,  501,  502
  503,  504,  505,  506,  507,  508,  509,  510,  511,  512,  513,  514,  515,  516,  517,  518
  519,  520,  521,  522,  523,  524,  525,  526,  527,  528,  529,  530,  531,  532,  533,  534
  535,  536,  537,  538,  539,  540,  613,  614,  615,  616,  617,  618,  619,  620,  621,  622
  623,  624,  625,  626,  627,  628,  629,  630,  631,  632,  633,  634,  635,  636,  637,  638
** ... 206 like lines cut
*Nset, nset=botsurf_tie
    1,    4,    7,    8,    9,   11,   14,   16,   19,   20,   69,   70,   71,   72,   73,   74
   75,   76,   77,   78,   79,   80,   81,   82,   83,   84,   85,   86,   87,   88,   89,   90
   91,   92,   93,   94,   95,   96,   97,   98,   99,  100,  101,  102,  103,  104,  105,  106
  107,  108,  109,  110,  111,  112,  113,  114,  115,  116,  165,  166,  167,  168,  169,  170
  171,  172,  173,  174,  175,  176,  177,  178,  179,  180,  181,  182,  183,  184,  185,  186
  187,  188,  189,  190,  191,  192,  193,  194,  195,  196,  197,  198,  199,  200,  201,  202
  203,  204,  205,  206,  207,  208,  209,  210,  211,  212,  213,  214,  215,  216,  217,  218
  219,  220,  221,  222,  223,  224,  225,  226,  227,  228,  229,  230,  231,  232,  233,  234
  235,  236,  237,  238,  239,  240,  241,  242,  243,  244,  245,  246,  247,  248,  249,  250
  251,  252,  253,  254,  255,  256,  257,  258,  259,  260,  309,  310,  311,  312,  313,  314
  315,  316,  317,  318,  329,  330,  331,  332,  333,  334,  335,  336,  337,  338,  373,  374
  375,  376,  377,  378,  379,  380,  381,  382,  383,  384,  385,  386,  387,  388,  389,  390
  391,  392,  393,  394,  395,  396,  445,  446,  447,  448,  449,  450,  451,  452,  453,  454
  455,  456,  457,  458,  459,  460,  461,  462,  463,  464,  465,  466,  467,  468,  469,  470
  471,  472,  473,  474,  475,  476,  477,  478,  479,  480,  481,  482,  483,  484,  485,  486
  487,  488,  489,  490,  491,  492,  541,  542,  543,  544,  545,  546,  547,  548,  549,  550
  551,  552,  553,  554,  555,  556,  557,  558,  559,  560,  561,  562,  563,  564,  565,  566
  567,  568,  569,  570,  571,  572,  573,  574,  575,  576,  577,  578,  579,  580,  581,  582
  583,  584,  585,  586,  587,  588,  589,  590,  591,  592,  593,  594,  595,  596,  597,  598
  599,  600,  601,  602,  603,  604,  605,  606,  607,  608,  609,  610,  611,  612,  661,  662
** ... 206 like lines cut
*Nset, nset=right_tie
  17,  18,  19,  20, 637, 638, 639, 640, 641, 642, 643, 644, 645, 646, 647, 648
 649, 650, 651, 652, 653, 654, 655, 656, 657, 658, 659, 660, 661, 662, 663, 664
 665, 666, 667, 668, 669, 670, 671, 672, 673, 674, 675, 676, 677, 678, 679, 680
 681, 682, 683, 684
*End Part
**  
*Part, name=top-part
*Node
      1,          83.,   12.6999998,        2.921
      2,          83.,   12.6999998,           0.
      3,   58.2999992,   12.6999998,           0.
      4,   58.2999992,   12.6999998,        2.921
      5,          83.,           0.,           0.
      6,   58.2999992,           0.,           0.
      7,   58.2999992,           0.,        2.921
      8,          83.,           0.,        2.921
      9,          53.,   12.6999998,           0.
     10,          53.,   12.6999998,        2.921
     11,          53.,           0.,           0.
     12,          53.,           0.,        2.921
     13,           0.,   12.6999998,           0.
     14,           0.,   12.6999998,        2.921
     15,           0.,           0.,           0.
     16,           0.,           0.,        2.921
     17,   114.300003,   12.6999998,        2.921
     18,   114.300003,           0.,        2.921
     19,   114.300003,           0.,           0.
     20,   114.300003,   12.6999998,           0.
** ... 6064 like lines cut
*Element, type=C3D8R
   1, 1861,  285,    2,   21,  709,  260,    1,  116
   2, 1862, 1861,   21,   22,  710,  709,  116,  115
   3, 1863, 1862,   22,   23,  711,  710,  115,  114
   4, 1864, 1863,   23,   24,  712,  711,  114,  113
   5, 1865, 1864,   24,   25,  713,  712,  113,  112
   6, 1866, 1865,   25,   26,  714,  713,  112,  111
   7, 1867, 1866,   26,   27,  715,  714,  111,  110
   8, 1868, 1867,   27,   28,  716,  715,  110,  109
   9, 1869, 1868,   28,   29,  717,  716,  109,  108
  10, 1870, 1869,   29,   30,  718,  717,  108,  107
  11, 1871, 1870,   30,   31,  719,  718,  107,  106
  12, 1872, 1871,   31,   32,  720,  719,  106,  105
  13, 1873, 1872,   32,   33,  721,  720,  105,  104
  14, 1874, 1873,   33,   34,  722,  721,  104,  103
  15, 1875, 1874,   34,   35,  723,  722,  103,  102
  16, 1876, 1875,   35,   36,  724,  723,  102,  101
  17, 1877, 1876,   36,   37,  725,  724,  101,  100
  18, 1878, 1877,   37,   38,  726,  725,  100,   99
  19, 1879, 1878,   38,   39,  727,  726,   99,   98
  20, 1880, 1879,   39,   40,  728,  727,   98,   97
** ... 2880 like lines cut
*Nset, nset=_PickedSet36, internal, generate
    1,  6084,     1
*Elset, elset=_PickedSet36, internal, generate
    1,  2900,     1
*Elset, elset=_botsurf_S1, internal, generate
    1,  2900,     1
*Surface, type=ELEMENT, name=botsurf
_botsurf_S1, S1
*Orientation, name=Ori-1
          1.,           0.,           0.,           0.,           1.,           0.
3, 0.
** Region: (CompositeLayup-1-1: Generated From Layup)
*Elset, elset=CompositeLayup-1-1, generate
    1,  2900,     1
** Section: CompositeLayup-1-1
*Solid Section, elset=CompositeLayup-1-1, composite, orientation=Ori-1, stack direction=3, layup=CompositeLayup-1
0.0434783, 1, Material-1, -60., Ply-1
0.0434783, 1, Material-1, -60., Ply-2
0.0434783, 1, Material-1, -60., Ply-3
0.0434783, 1, Material-1, -60., Ply-4
0.0434783, 1, Material-1, -30., Ply-5
0.0434783, 1, Material-1, -60., Ply-6
0.0434783, 1, Material-1, -30., Ply-7
0.0434783, 1, Material-1, 90., Ply-8
0.0434783, 1, Material-1, -30., Ply-9
0.0434783, 1, Material-1, 30., Ply-10
0.0434783, 1, Material-1, 90., Ply-11
0.0434783, 1, Material-1, 30., Ply-12
0.0434783, 1, Material-1, 60., Ply-13
0.0434783, 1, Material-1, 30., Ply-14
0.0434783, 1, Material-1, 60., Ply-15
0.0434783, 1, Material-1, 60., Ply-16
0.0434783, 1, Material-1, 60., Ply-17
0.0434783, 1, Material-1, 60., Ply-18
0.0434783, 1, Material-1, 0., Ply-19
0.0434783, 1, Material-1, -60., Ply-20
0.0434783, 1, Material-1, -60., Ply-21
0.0434783, 1, Material-1, -60., Ply-22
0.0434783, 1, Material-1, -60., Ply-23
*End Part
**  
**
** ASSEMBLY
**
*Assembly, name=Assembly
**  
*Instance, name=bot-part-1, part=bot-part
*End Instance
**  
*Instance, name=fnm-1, part=fnm
          0.,           0.,        3.429
*End Instance
**  
*Instance, name=top-part-1, part=top-part
          0.,           0.,        4.191
*End Instance
**  
*Nset, nset=fixleft, instance=bot-part-1
  13,  14,  15,  16, 589, 590, 591, 592, 593, 594, 595, 596, 597, 598, 599, 600
 601, 602, 603, 604, 605, 606, 607, 608, 609, 610, 611, 612, 613, 614, 615, 616
 617, 618, 619, 620, 621, 622, 623, 624, 625, 626, 627, 628, 629, 630, 631, 632
 633, 634, 635, 636
*Elset, elset=fixleft, instance=bot-part-1, generate
 1549,  2725,    49
*Nset, nset=fixright, instance=bot-part-1
  17,  18,  19,  20, 637, 638, 639, 640, 641, 642, 643, 644, 645, 646, 647, 648
 649, 650, 651, 652, 653, 654, 655, 656, 657, 658, 659, 660, 661, 662, 663, 664
 665, 666, 667, 668, 669, 670, 671, 672, 673, 674, 675, 676, 677, 678, 679, 680
 681, 682, 683, 684
*Nset, nset=fixright, instance=top-part-1
  17,  18,  19,  20, 549, 550, 551, 552, 553, 554, 555, 556, 557, 558, 559, 560
 561, 562, 563, 564, 565, 566, 567, 568, 569, 570, 571, 572, 573, 574, 575, 576
 577, 578, 579, 580, 581, 582, 583, 584, 585, 586, 587, 588, 589, 590, 591, 592
 593, 594, 595, 596
*Elset, elset=fixright, instance=bot-part-1, generate
 2726,  2750,     1
*Elset, elset=fixright, instance=top-part-1, generate
 2176,  2200,     1
*Nset, nset=load, instance=top-part-1
   4,   7, 213, 214, 215, 216, 217, 218, 219, 220, 221, 222, 223, 224, 225, 226
 227, 228, 229, 230, 231, 232, 233, 234, 235, 236
*Elset, elset=load, instance=top-part-1
   49,   98,  147,  196,  245,  294,  343,  392,  441,  490,  539,  588,  637,  686,  735,  784
  833,  882,  931,  980, 1029, 1078, 1127, 1176, 1225, 1226, 1237, 1248, 1259, 1270, 1281, 1292
 1303, 1314, 1325, 1336, 1347, 1358, 1369, 1380, 1391, 1402, 1413, 1424, 1435, 1446, 1457, 1468
 1479, 1490
*Surface, type=NODE, name=fnm-1_botsurf_tie_CNS_, internal
fnm-1.botsurf_tie, 1.
*Surface, type=NODE, name=fnm-1_topsurf_tie_CNS_, internal
fnm-1.topsurf_tie, 1.
** Constraint: Constraint-1
*Tie, name=Constraint-1, adjust=yes
fnm-1_botsurf_tie_CNS_, bot-part-1.topsurf
** Constraint: Constraint-2
*Tie, name=Constraint-2, adjust=yes
fnm-1_topsurf_tie_CNS_, top-part-1.botsurf
*End Assembly
** 
** MATERIALS
** 
*Material, name=Material-1
*Elastic, type=ENGINEERING CONSTANTS
161000.,11380.,11380.,  0.32,  0.32,  0.45, 5200., 5200.
 3900.,
** 
** BOUNDARY CONDITIONS
** 
** Name: fixleft Type: Displacement/Rotation
*Boundary
fixleft, 1, 1
fixleft, 2, 2
fixleft, 3, 3
** Name: fixload Type: Displacement/Rotation
*Boundary
load, 1, 1
load, 2, 2
** Name: fixright Type: Displacement/Rotation
*Boundary
fixright, 1, 1
fixright, 2, 2
fixright, 3, 3
** Name: fixright-fnm Type: Displacement/Rotation
*Boundary
fnm-1.right_tie, 1, 1
fnm-1.right_tie, 2, 2
fnm-1.right_tie, 3, 3
** ----------------------------------------------------------------
** 
** STEP: loading
** 
*Step, name=loading, inc=10000
*Static
0.001, 3., 0.0001, 0.001
** 
** BOUNDARY CONDITIONS
** 
** Name: load Type: Velocity/Angular velocity
*Boundary, type=VELOCITY
load, 3, 3, 1.
** 
** OUTPUT REQUESTS
** 
*Restart, write, frequency=0
** 
** FIELD OUTPUT: F-Output-1
** 
*Output, field
*Node Output
RF, U
*Element Output, directions=YES
EE, S
** 
** FIELD OUTPUT: F-Output-3
** 
*Element Output, elset=top-part-1.CompositeLayup-1-1, directions=YES
1, 2, 3, 4, 5, 6, 7, 8, 9, 10, 11, 12, 13, 14, 15, 16
EE, S
*Element Output, elset=top-part-1.CompositeLayup-1-1, directions=YES
17, 18, 19, 20, 21, 22, 23
EE, S
** 
** FIELD OUTPUT: F-Output-2
** 
*Element Output, elset=bot-part-1.CompositeLayup-1-1, directions=YES
1, 2, 3, 4, 5, 6, 7, 8, 9, 10, 11, 12, 13, 14, 15, 16
EE, S
*Element Output, elset=bot-part-1.CompositeLayup-1-1, directions=YES
17, 18, 19, 20, 21, 22, 23, 24, 25, 26, 27
EE, S
** 
** HISTORY OUTPUT: H-Output-1
** 
*Output, history, variable=PRESELECT
*End Step
