*Heading
** Job name: Pnc60clt-r1 Model name: Pnc60clt-r1
** Generated by: Abaqus/CAE 6.12-2
*Preprint, echo=NO, model=NO, history=NO, contact=NO
**
** PARTS
**
*Part, name=bot-part
*Node
      1,          53.,           0.,           0.
      2,          53.,           0.,    3.4289999
      3,           0.,           0.,    3.4289999
      4,           0.,           0.,           0.
      5,          53.,   12.6999998,    3.4289999
      6,           0.,   12.6999998,    3.4289999
      7,           0.,   12.6999998,           0.
      8,          53.,   12.6999998,           0.
      9,   114.300003,   12.6999998,    3.4289999
     10,   114.300003,           0.,    3.4289999
     11,   114.300003,           0.,           0.
     12,   114.300003,   12.6999998,           0.
     13,          52.,           0.,    3.4289999
     14,          51.,           0.,    3.4289999
     15,          50.,           0.,    3.4289999
     16,          49.,           0.,    3.4289999
     17,          48.,           0.,    3.4289999
     18,          47.,           0.,    3.4289999
     19,          46.,           0.,    3.4289999
     20,          45.,           0.,    3.4289999
** ... 3200 like lines cut
*Element, type=C3D8R
  1,  244,  533,  116,    1,  257, 1157,   13,    2
  2,  533,  534,  115,  116, 1157, 1158,   14,   13
  3,  534,  535,  114,  115, 1158, 1159,   15,   14
  4,  535,  536,  113,  114, 1159, 1160,   16,   15
  5,  536,  537,  112,  113, 1160, 1161,   17,   16
  6,  537,  538,  111,  112, 1161, 1162,   18,   17
  7,  538,  539,  110,  111, 1162, 1163,   19,   18
  8,  539,  540,  109,  110, 1163, 1164,   20,   19
  9,  540,  541,  108,  109, 1164, 1165,   21,   20
 10,  541,  542,  107,  108, 1165, 1166,   22,   21
 11,  542,  543,  106,  107, 1166, 1167,   23,   22
 12,  543,  544,  105,  106, 1167, 1168,   24,   23
 13,  544,  545,  104,  105, 1168, 1169,   25,   24
 14,  545,  546,  103,  104, 1169, 1170,   26,   25
 15,  546,  547,  102,  103, 1170, 1171,   27,   26
 16,  547,  548,  101,  102, 1171, 1172,   28,   27
 17,  548,  549,  100,  101, 1172, 1173,   29,   28
 18,  549,  550,   99,  100, 1173, 1174,   30,   29
 19,  550,  551,   98,   99, 1174, 1175,   31,   30
 20,  551,  552,   97,   98, 1175, 1176,   32,   31
** ... 1462 like lines cut
*Nset, nset=_PickedSet37, internal, generate
    1,  3220,     1
*Elset, elset=_PickedSet37, internal, generate
    1,  1482,     1
*Elset, elset=_topsurf_S2, internal, generate
    1,  1482,     1
*Surface, type=ELEMENT, name=topsurf
_topsurf_S2, S2
*Orientation, name=Ori-1
          1.,           0.,           0.,           0.,           1.,           0.
3, 0.
** Region: (CompositeLayup-1-1: Generated From Layup)
*Elset, elset=CompositeLayup-1-1, generate
    1,  1482,     1
** Section: CompositeLayup-1-1
*Solid Section, elset=CompositeLayup-1-1, composite, orientation=Ori-1, stack direction=3, layup=CompositeLayup-1
0.037037, 1, Material-1, 60., Ply-1
0.037037, 1, Material-1, 0., Ply-2
0.037037, 1, Material-1, 60., Ply-3
0.037037, 1, Material-1, 60., Ply-4
0.037037, 1, Material-1, 60., Ply-5
0.037037, 1, Material-1, -60., Ply-6
0.037037, 1, Material-1, -60., Ply-7
0.037037, 1, Material-1, -60., Ply-8
0.037037, 1, Material-1, -60., Ply-9
0.037037, 1, Material-1, -30., Ply-10
0.037037, 1, Material-1, -60., Ply-11
0.037037, 1, Material-1, -30., Ply-12
0.037037, 1, Material-1, 90., Ply-13
0.037037, 1, Material-1, -30., Ply-14
0.037037, 1, Material-1, 30., Ply-15
0.037037, 1, Material-1, 90., Ply-16
0.037037, 1, Material-1, 30., Ply-17
0.037037, 1, Material-1, 60., Ply-18
0.037037, 1, Material-1, 30., Ply-19
0.037037, 1, Material-1, 60., Ply-20
** ... 7 like lines cut
*End Part
**  
*Part, name=fnm
*Node
      1,          53.,           0.,           0.
      2,          53.,           0.,  0.762000024
      3,           0.,           0.,  0.762000024
      4,           0.,           0.,           0.
      5,          53.,   12.6999998,  0.762000024
      6,           0.,   12.6999998,  0.762000024
      7,           0.,   12.6999998,           0.
      8,          53.,   12.6999998,           0.
      9,   114.300003,   12.6999998,  0.762000024
     10,   114.300003,           0.,  0.762000024
     11,   114.300003,           0.,           0.
     12,   114.300003,   12.6999998,           0.
     13,         52.5,           0.,  0.762000024
     14,          52.,           0.,  0.762000024
     15,         51.5,           0.,  0.762000024
     16,          51.,           0.,  0.762000024
     17,         50.5,           0.,  0.762000024
     18,          50.,           0.,  0.762000024
     19,         49.5,           0.,  0.762000024
     20,          49.,           0.,  0.762000024
** ... 11940 like lines cut
*Element, type=C3D8R
   1,  480, 1065,  222,    1,  505, 3585,   13,    2
   2, 1065, 1066,  221,  222, 3585, 3586,   14,   13
   3, 1066, 1067,  220,  221, 3586, 3587,   15,   14
   4, 1067, 1068,  219,  220, 3587, 3588,   16,   15
   5, 1068, 1069,  218,  219, 3588, 3589,   17,   16
   6, 1069, 1070,  217,  218, 3589, 3590,   18,   17
   7, 1070, 1071,  216,  217, 3590, 3591,   19,   18
   8, 1071, 1072,  215,  216, 3591, 3592,   20,   19
   9, 1072, 1073,  214,  215, 3592, 3593,   21,   20
  10, 1073, 1074,  213,  214, 3593, 3594,   22,   21
  11, 1074, 1075,  212,  213, 3594, 3595,   23,   22
  12, 1075, 1076,  211,  212, 3595, 3596,   24,   23
  13, 1076, 1077,  210,  211, 3596, 3597,   25,   24
  14, 1077, 1078,  209,  210, 3597, 3598,   26,   25
  15, 1078, 1079,  208,  209, 3598, 3599,   27,   26
  16, 1079, 1080,  207,  208, 3599, 3600,   28,   27
  17, 1080, 1081,  206,  207, 3600, 3601,   29,   28
  18, 1081, 1082,  205,  206, 3601, 3602,   30,   29
  19, 1082, 1083,  204,  205, 3602, 3603,   31,   30
  20, 1083, 1084,  203,  204, 3603, 3604,   32,   31
** ... 5705 like lines cut
*Elset, elset=predelam, generate
    1,  2650,     1
*Nset, nset=right_tie
   9,  10,  11,  12, 529, 530, 531, 532, 533, 534, 535, 536, 537, 538, 539, 540
 541, 542, 543, 544, 545, 546, 547, 548, 549, 550, 551, 552, 553, 554, 555, 556
 557, 558, 559, 560, 561, 562, 563, 564, 565, 566, 567, 568, 569, 570, 571, 572
 573, 574, 575, 576
*Nset, nset=topsurf_tie
    2,    3,    5,    6,    9,   10,   13,   14,   15,   16,   17,   18,   19,   20,   21,   22
   23,   24,   25,   26,   27,   28,   29,   30,   31,   32,   33,   34,   35,   36,   37,   38
   39,   40,   41,   42,   43,   44,   45,   46,   47,   48,   49,   50,   51,   52,   53,   54
   55,   56,   57,   58,   59,   60,   61,   62,   63,   64,   65,   66,   67,   68,   69,   70
   71,   72,   73,   74,   75,   76,   77,   78,   79,   80,   81,   82,   83,   84,   85,   86
   87,   88,   89,   90,   91,   92,   93,   94,   95,   96,   97,   98,   99,  100,  101,  102
  103,  104,  105,  106,  107,  108,  109,  110,  111,  112,  113,  114,  115,  116,  117,  223
  224,  225,  226,  227,  228,  229,  230,  231,  232,  233,  234,  235,  236,  237,  238,  239
  240,  241,  242,  243,  244,  245,  246,  247,  248,  249,  250,  251,  252,  253,  254,  255
  256,  257,  258,  259,  260,  261,  262,  263,  264,  265,  266,  267,  268,  269,  270,  271
  272,  273,  274,  275,  276,  277,  278,  279,  280,  281,  282,  283,  284,  285,  286,  287
  288,  289,  290,  291,  292,  293,  294,  295,  296,  297,  298,  299,  300,  301,  302,  303
  304,  305,  306,  307,  308,  309,  310,  311,  312,  313,  314,  315,  316,  317,  318,  319
  320,  321,  322,  323,  324,  325,  326,  327,  481,  482,  483,  484,  485,  486,  487,  488
  489,  490,  491,  492,  493,  494,  495,  496,  497,  498,  499,  500,  501,  502,  503,  504
  505,  506,  507,  508,  509,  510,  511,  512,  513,  514,  515,  516,  517,  518,  519,  520
  521,  522,  523,  524,  525,  526,  527,  528,  529,  530,  531,  532,  533,  534,  535,  536
  537,  538,  539,  540,  541,  542,  543,  544,  545,  546,  547,  548,  549,  550,  551,  552
  699,  700,  701,  702,  703,  704,  705,  706,  707,  708,  709,  710,  711,  712,  713,  714
  715,  716,  717,  718,  719,  720,  721,  722,  723,  724,  725,  726,  727,  728,  729,  730
** ... 354 like lines cut
*Nset, nset=botsurf_tie
     1,     4,     7,     8,    11,    12,   118,   119,   120,   121,   122,   123,   124,   125,   126,   127
   128,   129,   130,   131,   132,   133,   134,   135,   136,   137,   138,   139,   140,   141,   142,   143
   144,   145,   146,   147,   148,   149,   150,   151,   152,   153,   154,   155,   156,   157,   158,   159
   160,   161,   162,   163,   164,   165,   166,   167,   168,   169,   170,   171,   172,   173,   174,   175
   176,   177,   178,   179,   180,   181,   182,   183,   184,   185,   186,   187,   188,   189,   190,   191
   192,   193,   194,   195,   196,   197,   198,   199,   200,   201,   202,   203,   204,   205,   206,   207
   208,   209,   210,   211,   212,   213,   214,   215,   216,   217,   218,   219,   220,   221,   222,   328
   329,   330,   331,   332,   333,   334,   335,   336,   337,   338,   339,   340,   341,   342,   343,   344
   345,   346,   347,   348,   349,   350,   351,   352,   353,   354,   355,   356,   357,   358,   359,   360
   361,   362,   363,   364,   365,   366,   367,   368,   369,   370,   371,   372,   373,   374,   375,   376
   377,   378,   379,   380,   381,   382,   383,   384,   385,   386,   387,   388,   389,   390,   391,   392
   393,   394,   395,   396,   397,   398,   399,   400,   401,   402,   403,   404,   405,   406,   407,   408
   409,   410,   411,   412,   413,   414,   415,   416,   417,   418,   419,   420,   421,   422,   423,   424
   425,   426,   427,   428,   429,   430,   431,   432,   433,   434,   435,   436,   437,   438,   439,   440
   441,   442,   443,   444,   445,   446,   447,   448,   449,   450,   451,   452,   453,   454,   455,   456
   457,   458,   459,   460,   461,   462,   463,   464,   465,   466,   467,   468,   469,   470,   471,   472
   473,   474,   475,   476,   477,   478,   479,   480,   553,   554,   555,   556,   557,   558,   559,   560
   561,   562,   563,   564,   565,   566,   567,   568,   569,   570,   571,   572,   573,   574,   575,   576
   577,   578,   579,   580,   581,   582,   583,   584,   585,   586,   587,   588,   589,   590,   591,   592
   593,   594,   595,   596,   597,   598,   599,   600,   601,   602,   603,   604,   605,   606,   607,   608
** ... 354 like lines cut
*End Part
**  
*Part, name=top-part
*Node
      1,   58.2999992,   12.6999998,        2.921
      2,   58.2999992,   12.6999998,           0.
      3,          53.,   12.6999998,           0.
      4,          53.,   12.6999998,        2.921
      5,   58.2999992,           0.,           0.
      6,          53.,           0.,           0.
      7,          53.,           0.,        2.921
      8,   58.2999992,           0.,        2.921
      9,           0.,           0.,        2.921
     10,           0.,           0.,           0.
     11,           0.,   12.6999998,        2.921
     12,           0.,   12.6999998,           0.
     13,   114.300003,   12.6999998,        2.921
     14,   114.300003,           0.,        2.921
     15,   114.300003,           0.,           0.
     16,   114.300003,   12.6999998,           0.
     17,   57.2400017,   12.6999998,           0.
     18,   56.1800003,   12.6999998,           0.
     19,   55.1199989,   12.6999998,           0.
     20,   54.0600014,   12.6999998,           0.
** ... 2304 like lines cut
*Element, type=C3D8R
 1, 477,  69,   2,  17, 429,  56,   1,  24
 2, 478, 477,  17,  18, 430, 429,  24,  23
 3, 479, 478,  18,  19, 431, 430,  23,  22
 4, 480, 479,  19,  20, 432, 431,  22,  21
 5,  68, 480,  20,   3,  33, 432,  21,   4
 6, 481,  70,  69, 477, 433,  55,  56, 429
 7, 482, 481, 477, 478, 434, 433, 429, 430
 8, 483, 482, 478, 479, 435, 434, 430, 431
 9, 484, 483, 479, 480, 436, 435, 431, 432
10,  67, 484, 480,  68,  34, 436, 432,  33
11, 485,  71,  70, 481, 437,  54,  55, 433
12, 486, 485, 481, 482, 438, 437, 433, 434
13, 487, 486, 482, 483, 439, 438, 434, 435
14, 488, 487, 483, 484, 440, 439, 435, 436
15,  66, 488, 484,  67,  35, 440, 436,  34
16, 489,  72,  71, 485, 441,  53,  54, 437
17, 490, 489, 485, 486, 442, 441, 437, 438
18, 491, 490, 486, 487, 443, 442, 438, 439
19, 492, 491, 487, 488, 444, 443, 439, 440
20,  65, 492, 488,  66,  36, 444, 440,  35
** ... 1046 like lines cut
*Nset, nset=_PickedSet36, internal, generate
    1,  2324,     1
*Elset, elset=_PickedSet36, internal, generate
    1,  1066,     1
*Elset, elset=_botsurf_S1, internal, generate
    1,  1066,     1
*Surface, type=ELEMENT, name=botsurf
_botsurf_S1, S1
*Orientation, name=Ori-1
          1.,           0.,           0.,           0.,           1.,           0.
3, 0.
** Region: (CompositeLayup-1-1: Generated From Layup)
*Elset, elset=CompositeLayup-1-1, generate
    1,  1066,     1
** Section: CompositeLayup-1-1
*Solid Section, elset=CompositeLayup-1-1, composite, orientation=Ori-1, stack direction=3, layup=CompositeLayup-1
0.0434783, 1, Material-1, -60., Ply-1
0.0434783, 1, Material-1, -60., Ply-2
0.0434783, 1, Material-1, -60., Ply-3
0.0434783, 1, Material-1, -60., Ply-4
0.0434783, 1, Material-1, -30., Ply-5
0.0434783, 1, Material-1, -60., Ply-6
0.0434783, 1, Material-1, -30., Ply-7
0.0434783, 1, Material-1, 90., Ply-8
0.0434783, 1, Material-1, -30., Ply-9
0.0434783, 1, Material-1, 30., Ply-10
0.0434783, 1, Material-1, 90., Ply-11
0.0434783, 1, Material-1, 30., Ply-12
0.0434783, 1, Material-1, 60., Ply-13
0.0434783, 1, Material-1, 30., Ply-14
0.0434783, 1, Material-1, 60., Ply-15
0.0434783, 1, Material-1, 60., Ply-16
0.0434783, 1, Material-1, 60., Ply-17
0.0434783, 1, Material-1, 60., Ply-18
0.0434783, 1, Material-1, 0., Ply-19
0.0434783, 1, Material-1, -60., Ply-20
0.0434783, 1, Material-1, -60., Ply-21
0.0434783, 1, Material-1, -60., Ply-22
0.0434783, 1, Material-1, -60., Ply-23
*End Part
**  
**
** ASSEMBLY
**
*Assembly, name=Assembly
**  
*Instance, name=bot-part-1, part=bot-part
*End Instance
**  
*Instance, name=fnm-1, part=fnm
          0.,           0.,        3.429
*End Instance
**  
*Instance, name=top-part-1, part=top-part
          0.,           0.,        4.191
*End Instance
**  
*Nset, nset=fixleft, instance=bot-part-1
   3,   4,   6,   7, 221, 222, 223, 224, 225, 226, 227, 228, 229, 230, 231, 232
 245, 246, 247, 248, 249, 250, 251, 252, 253, 254, 255, 256
*Elset, elset=fixleft, instance=bot-part-1, generate
  53,  689,   53
*Nset, nset=fixright, instance=bot-part-1
   9,  10,  11,  12, 269, 270, 271, 272, 273, 274, 275, 276, 277, 278, 279, 280
 281, 282, 283, 284, 285, 286, 287, 288, 289, 290, 291, 292
*Nset, nset=fixright, instance=top-part-1
  13,  14,  15,  16, 185, 186, 187, 188, 189, 190, 191, 192, 193, 194, 195, 196
 197, 198, 199, 200, 201, 202, 203, 204, 205, 206, 207, 208
*Elset, elset=fixright, instance=bot-part-1, generate
 690,  702,    1
*Elset, elset=fixright, instance=top-part-1, generate
 339,  351,    1
*Nset, nset=load, instance=top-part-1
  1,  8, 45, 46, 47, 48, 49, 50, 51, 52, 53, 54, 55, 56
*Elset, elset=load, instance=top-part-1
    1,    6,   11,   16,   21,   26,   31,   36,   41,   46,   51,   56,   61, 1054, 1055, 1056
 1057, 1058, 1059, 1060, 1061, 1062, 1063, 1064, 1065, 1066
*Surface, type=NODE, name=fnm-1_botsurf_tie_CNS_, internal
fnm-1.botsurf_tie, 1.
*Surface, type=NODE, name=fnm-1_topsurf_tie_CNS_, internal
fnm-1.topsurf_tie, 1.
** Constraint: Constraint-1
*Tie, name=Constraint-1, adjust=yes
fnm-1_botsurf_tie_CNS_, bot-part-1.topsurf
** Constraint: Constraint-2
*Tie, name=Constraint-2, adjust=yes
fnm-1_topsurf_tie_CNS_, top-part-1.botsurf
*End Assembly
** 
** MATERIALS
** 
*Material, name=Material-1
*Elastic, type=ENGINEERING CONSTANTS
161000.,11400.,11400.,  0.32,  0.32, 0.436, 5170., 5170.
 3980.,
** 
** BOUNDARY CONDITIONS
** 
** Name: fixleft Type: Displacement/Rotation
*Boundary
fixleft, 1, 1
fixleft, 2, 2
fixleft, 3, 3
** Name: fixright Type: Displacement/Rotation
*Boundary
fixright, 1, 1
fixright, 2, 2
fixright, 3, 3
** Name: fixright-fnm Type: Displacement/Rotation
*Boundary
fnm-1.right_tie, 1, 1
fnm-1.right_tie, 2, 2
fnm-1.right_tie, 3, 3
** ----------------------------------------------------------------
** 
** STEP: loading
** 
*Step, name=loading, inc=10000
*Static
0.001, 3., 0.0001, 0.001
** 
** BOUNDARY CONDITIONS
** 
** Name: load Type: Velocity/Angular velocity
*Boundary, type=VELOCITY
load, 3, 3, 1.
** 
** OUTPUT REQUESTS
** 
*Restart, write, frequency=0
** 
** FIELD OUTPUT: F-Output-1
** 
*Output, field
*Node Output
RF, U
*Element Output, directions=YES
EE, S
** 
** FIELD OUTPUT: F-Output-3
** 
*Element Output, elset=top-part-1.CompositeLayup-1-1, directions=YES
1, 2, 3, 4, 5, 6, 7, 8, 9, 10, 11, 12, 13, 14, 15, 16
EE, S
*Element Output, elset=top-part-1.CompositeLayup-1-1, directions=YES
17, 18, 19, 20, 21, 22, 23
EE, S
** 
** FIELD OUTPUT: F-Output-2
** 
*Element Output, elset=bot-part-1.CompositeLayup-1-1, directions=YES
1, 2, 3, 4, 5, 6, 7, 8, 9, 10, 11, 12, 13, 14, 15, 16
EE, S
*Element Output, elset=bot-part-1.CompositeLayup-1-1, directions=YES
17, 18, 19, 20, 21, 22, 23, 24, 25, 26, 27
EE, S
** 
** HISTORY OUTPUT: H-Output-1
** 
*Output, history, variable=PRESELECT
*End Step
