*Heading
** Job name: Pnc60clt Model name: Pnc60clt
** Generated by: Abaqus/CAE 6.12-2
*Preprint, echo=NO, model=NO, history=NO, contact=NO
**
** PARTS
**
*Part, name=bot-part
*Node
      1,   58.2999992,   12.6999998,           0.
      2,   58.2999992,   12.6999998,    3.4289999
      3,          83.,   12.6999998,    3.4289999
      4,          83.,   12.6999998,           0.
      5,   58.2999992,           0.,    3.4289999
      6,          83.,           0.,    3.4289999
      7,          83.,           0.,           0.
      8,   58.2999992,           0.,           0.
      9,          53.,   12.6999998,           0.
     10,          53.,   12.6999998,    3.4289999
     11,          53.,           0.,           0.
     12,          53.,           0.,    3.4289999
     13,           0.,           0.,    3.4289999
     14,           0.,           0.,           0.
     15,           0.,   12.6999998,    3.4289999
     16,           0.,   12.6999998,           0.
     17,   114.300003,   12.6999998,    3.4289999
     18,   114.300003,           0.,    3.4289999
     19,   114.300003,           0.,           0.
     20,   114.300003,   12.6999998,           0.
** ... 9184 like lines cut
*Element, type=SC8R
   1,  260,  949,  116,    1,  285, 2101,   21,    2
   2,  949,  950,  115,  116, 2101, 2102,   22,   21
   3,  950,  951,  114,  115, 2102, 2103,   23,   22
   4,  951,  952,  113,  114, 2103, 2104,   24,   23
   5,  952,  953,  112,  113, 2104, 2105,   25,   24
   6,  953,  954,  111,  112, 2105, 2106,   26,   25
   7,  954,  955,  110,  111, 2106, 2107,   27,   26
   8,  955,  956,  109,  110, 2107, 2108,   28,   27
   9,  956,  957,  108,  109, 2108, 2109,   29,   28
  10,  957,  958,  107,  108, 2109, 2110,   30,   29
  11,  958,  959,  106,  107, 2110, 2111,   31,   30
  12,  959,  960,  105,  106, 2111, 2112,   32,   31
  13,  960,  961,  104,  105, 2112, 2113,   33,   32
  14,  961,  962,  103,  104, 2113, 2114,   34,   33
  15,  962,  963,  102,  103, 2114, 2115,   35,   34
  16,  963,  964,  101,  102, 2115, 2116,   36,   35
  17,  964,  965,  100,  101, 2116, 2117,   37,   36
  18,  965,  966,   99,  100, 2117, 2118,   38,   37
  19,  966,  967,   98,   99, 2118, 2119,   39,   38
  20,  967,  968,   97,   98, 2119, 2120,   40,   39
** ... 4380 like lines cut
*Nset, nset=_PickedSet37, internal, generate
    1,  9204,     1
*Elset, elset=_PickedSet37, internal, generate
    1,  4400,     1
*Elset, elset=_topsurf_S2, internal, generate
    1,  4400,     1
*Surface, type=ELEMENT, name=topsurf
_topsurf_S2, S2
*Orientation, name=Ori-1
          1.,           0.,           0.,           0.,           1.,           0.
3, 0.
** Region: (CompositeLayup-1-1: Generated From Layup)
*Elset, elset=CompositeLayup-1-1, generate
    1,  4400,     1
** Section: CompositeLayup-1-1
*Shell Section, elset=CompositeLayup-1-1, composite, orientation=Ori-1, stack direction=3, layup=CompositeLayup-1
0.037037, 1, Material-1, 60., Ply-1
0.037037, 1, Material-1, 0., Ply-2
0.037037, 1, Material-1, 60., Ply-3
0.037037, 1, Material-1, 60., Ply-4
0.037037, 1, Material-1, 60., Ply-5
0.037037, 1, Material-1, -60., Ply-6
0.037037, 1, Material-1, -60., Ply-7
0.037037, 1, Material-1, -60., Ply-8
0.037037, 1, Material-1, -60., Ply-9
0.037037, 1, Material-1, -30., Ply-10
0.037037, 1, Material-1, -60., Ply-11
0.037037, 1, Material-1, -30., Ply-12
0.037037, 1, Material-1, 90., Ply-13
0.037037, 1, Material-1, -30., Ply-14
0.037037, 1, Material-1, 30., Ply-15
0.037037, 1, Material-1, 90., Ply-16
0.037037, 1, Material-1, 30., Ply-17
0.037037, 1, Material-1, 60., Ply-18
0.037037, 1, Material-1, 30., Ply-19
0.037037, 1, Material-1, 60., Ply-20
** ... 7 like lines cut
*End Part
**  
*Part, name=fnm
*Node
      1,   58.2999992,   12.6999998,           0.
      2,   58.2999992,   12.6999998,  0.762000024
      3,          83.,   12.6999998,  0.762000024
      4,          83.,   12.6999998,           0.
      5,   58.2999992,           0.,  0.762000024
      6,          83.,           0.,  0.762000024
      7,          83.,           0.,           0.
      8,   58.2999992,           0.,           0.
      9,          53.,   12.6999998,           0.
     10,          53.,   12.6999998,  0.762000024
     11,          53.,           0.,           0.
     12,          53.,           0.,  0.762000024
     13,           0.,           0.,  0.762000024
     14,           0.,           0.,           0.
     15,           0.,   12.6999998,  0.762000024
     16,           0.,   12.6999998,           0.
     17,   114.300003,   12.6999998,  0.762000024
     18,   114.300003,           0.,  0.762000024
     19,   114.300003,           0.,           0.
     20,   114.300003,   12.6999998,           0.
** ... 9184 like lines cut
*Element, type=C3D8R
   1,  260,  949,  116,    1,  285, 2101,   21,    2
   2,  949,  950,  115,  116, 2101, 2102,   22,   21
   3,  950,  951,  114,  115, 2102, 2103,   23,   22
   4,  951,  952,  113,  114, 2103, 2104,   24,   23
   5,  952,  953,  112,  113, 2104, 2105,   25,   24
   6,  953,  954,  111,  112, 2105, 2106,   26,   25
   7,  954,  955,  110,  111, 2106, 2107,   27,   26
   8,  955,  956,  109,  110, 2107, 2108,   28,   27
   9,  956,  957,  108,  109, 2108, 2109,   29,   28
  10,  957,  958,  107,  108, 2109, 2110,   30,   29
  11,  958,  959,  106,  107, 2110, 2111,   31,   30
  12,  959,  960,  105,  106, 2111, 2112,   32,   31
  13,  960,  961,  104,  105, 2112, 2113,   33,   32
  14,  961,  962,  103,  104, 2113, 2114,   34,   33
  15,  962,  963,  102,  103, 2114, 2115,   35,   34
  16,  963,  964,  101,  102, 2115, 2116,   36,   35
  17,  964,  965,  100,  101, 2116, 2117,   37,   36
  18,  965,  966,   99,  100, 2117, 2118,   38,   37
  19,  966,  967,   98,   99, 2118, 2119,   39,   38
  20,  967,  968,   97,   98, 2119, 2120,   40,   39
** ... 4380 like lines cut
*Elset, elset=predelam, generate
 1501,  3325,     1
*Nset, nset=right_tie
  17,  18,  19,  20, 733, 734, 735, 736, 737, 738, 739, 740, 741, 742, 743, 744
 745, 746, 747, 748, 749, 750, 751, 752, 753, 754, 755, 756, 757, 758, 759, 760
 761, 762, 763, 764, 765, 766, 767, 768, 769, 770, 771, 772, 773, 774, 775, 776
 777, 778, 779, 780
*Nset, nset=topsurf_tie
    2,    3,    5,    6,   10,   12,   13,   15,   17,   18,   21,   22,   23,   24,   25,   26
   27,   28,   29,   30,   31,   32,   33,   34,   35,   36,   37,   38,   39,   40,   41,   42
   43,   44,   45,   46,   47,   48,   49,   50,   51,   52,   53,   54,   55,   56,   57,   58
   59,   60,   61,   62,   63,   64,   65,   66,   67,   68,  117,  118,  119,  120,  121,  122
  123,  124,  125,  126,  127,  128,  129,  130,  131,  132,  133,  134,  135,  136,  137,  138
  139,  140,  141,  142,  143,  144,  145,  146,  147,  148,  149,  150,  151,  152,  153,  154
  155,  156,  157,  158,  159,  160,  161,  162,  163,  164,  261,  262,  263,  264,  265,  266
  267,  268,  269,  270,  271,  272,  273,  274,  275,  276,  277,  278,  279,  280,  281,  282
  283,  284,  285,  286,  287,  288,  289,  290,  291,  292,  293,  294,  295,  296,  297,  298
  299,  300,  301,  302,  303,  304,  305,  306,  307,  308,  319,  320,  321,  322,  323,  324
  325,  326,  327,  328,  339,  340,  341,  342,  343,  344,  345,  346,  347,  348,  349,  350
  351,  352,  353,  354,  355,  356,  357,  358,  359,  360,  361,  362,  363,  364,  365,  366
  367,  368,  369,  370,  371,  372,  397,  398,  399,  400,  401,  402,  403,  404,  405,  406
  407,  408,  409,  410,  411,  412,  413,  414,  415,  416,  417,  418,  419,  420,  421,  422
  423,  424,  425,  426,  427,  428,  429,  430,  431,  432,  433,  434,  435,  436,  437,  438
  439,  440,  441,  442,  443,  444,  445,  446,  447,  448,  449,  450,  451,  452,  453,  454
  455,  456,  457,  458,  459,  460,  461,  462,  463,  464,  465,  466,  467,  468,  541,  542
  543,  544,  545,  546,  547,  548,  549,  550,  551,  552,  553,  554,  555,  556,  557,  558
  559,  560,  561,  562,  563,  564,  565,  566,  567,  568,  569,  570,  571,  572,  573,  574
  575,  576,  577,  578,  579,  580,  581,  582,  583,  584,  585,  586,  587,  588,  589,  590
** ... 268 like lines cut
*Nset, nset=botsurf_tie
    1,    4,    7,    8,    9,   11,   14,   16,   19,   20,   69,   70,   71,   72,   73,   74
   75,   76,   77,   78,   79,   80,   81,   82,   83,   84,   85,   86,   87,   88,   89,   90
   91,   92,   93,   94,   95,   96,   97,   98,   99,  100,  101,  102,  103,  104,  105,  106
  107,  108,  109,  110,  111,  112,  113,  114,  115,  116,  165,  166,  167,  168,  169,  170
  171,  172,  173,  174,  175,  176,  177,  178,  179,  180,  181,  182,  183,  184,  185,  186
  187,  188,  189,  190,  191,  192,  193,  194,  195,  196,  197,  198,  199,  200,  201,  202
  203,  204,  205,  206,  207,  208,  209,  210,  211,  212,  213,  214,  215,  216,  217,  218
  219,  220,  221,  222,  223,  224,  225,  226,  227,  228,  229,  230,  231,  232,  233,  234
  235,  236,  237,  238,  239,  240,  241,  242,  243,  244,  245,  246,  247,  248,  249,  250
  251,  252,  253,  254,  255,  256,  257,  258,  259,  260,  309,  310,  311,  312,  313,  314
  315,  316,  317,  318,  329,  330,  331,  332,  333,  334,  335,  336,  337,  338,  373,  374
  375,  376,  377,  378,  379,  380,  381,  382,  383,  384,  385,  386,  387,  388,  389,  390
  391,  392,  393,  394,  395,  396,  469,  470,  471,  472,  473,  474,  475,  476,  477,  478
  479,  480,  481,  482,  483,  484,  485,  486,  487,  488,  489,  490,  491,  492,  493,  494
  495,  496,  497,  498,  499,  500,  501,  502,  503,  504,  505,  506,  507,  508,  509,  510
  511,  512,  513,  514,  515,  516,  517,  518,  519,  520,  521,  522,  523,  524,  525,  526
  527,  528,  529,  530,  531,  532,  533,  534,  535,  536,  537,  538,  539,  540,  613,  614
  615,  616,  617,  618,  619,  620,  621,  622,  623,  624,  625,  626,  627,  628,  629,  630
  631,  632,  633,  634,  635,  636,  637,  638,  639,  640,  641,  642,  643,  644,  645,  646
  647,  648,  649,  650,  651,  652,  653,  654,  655,  656,  657,  658,  659,  660,  661,  662
** ... 268 like lines cut
*End Part
**  
*Part, name=top-part
*Node
      1,          83.,   12.6999998,        2.921
      2,          83.,   12.6999998,           0.
      3,   58.2999992,   12.6999998,           0.
      4,   58.2999992,   12.6999998,        2.921
      5,          83.,           0.,           0.
      6,   58.2999992,           0.,           0.
      7,   58.2999992,           0.,        2.921
      8,          83.,           0.,        2.921
      9,          53.,   12.6999998,           0.
     10,          53.,   12.6999998,        2.921
     11,          53.,           0.,           0.
     12,          53.,           0.,        2.921
     13,           0.,   12.6999998,           0.
     14,           0.,   12.6999998,        2.921
     15,           0.,           0.,           0.
     16,           0.,           0.,        2.921
     17,   114.300003,   12.6999998,        2.921
     18,   114.300003,           0.,        2.921
     19,   114.300003,           0.,           0.
     20,   114.300003,   12.6999998,           0.
** ... 6792 like lines cut
*Element, type=SC8R
   1, 1917,  285,    2,   21,  765,  260,    1,  116
   2, 1918, 1917,   21,   22,  766,  765,  116,  115
   3, 1919, 1918,   22,   23,  767,  766,  115,  114
   4, 1920, 1919,   23,   24,  768,  767,  114,  113
   5, 1921, 1920,   24,   25,  769,  768,  113,  112
   6, 1922, 1921,   25,   26,  770,  769,  112,  111
   7, 1923, 1922,   26,   27,  771,  770,  111,  110
   8, 1924, 1923,   27,   28,  772,  771,  110,  109
   9, 1925, 1924,   28,   29,  773,  772,  109,  108
  10, 1926, 1925,   29,   30,  774,  773,  108,  107
  11, 1927, 1926,   30,   31,  775,  774,  107,  106
  12, 1928, 1927,   31,   32,  776,  775,  106,  105
  13, 1929, 1928,   32,   33,  777,  776,  105,  104
  14, 1930, 1929,   33,   34,  778,  777,  104,  103
  15, 1931, 1930,   34,   35,  779,  778,  103,  102
  16, 1932, 1931,   35,   36,  780,  779,  102,  101
  17, 1933, 1932,   36,   37,  781,  780,  101,  100
  18, 1934, 1933,   37,   38,  782,  781,  100,   99
  19, 1935, 1934,   38,   39,  783,  782,   99,   98
  20, 1936, 1935,   39,   40,  784,  783,   98,   97
** ... 3230 like lines cut
*Nset, nset=_PickedSet36, internal, generate
    1,  6812,     1
*Elset, elset=_PickedSet36, internal, generate
    1,  3250,     1
*Elset, elset=_botsurf_S1, internal, generate
    1,  3250,     1
*Surface, type=ELEMENT, name=botsurf
_botsurf_S1, S1
*Orientation, name=Ori-1
          1.,           0.,           0.,           0.,           1.,           0.
3, 0.
** Region: (CompositeLayup-1-1: Generated From Layup)
*Elset, elset=CompositeLayup-1-1, generate
    1,  3250,     1
** Section: CompositeLayup-1-1
*Shell Section, elset=CompositeLayup-1-1, composite, orientation=Ori-1, stack direction=3, layup=CompositeLayup-1
0.0434783, 1, Material-1, -60., Ply-1
0.0434783, 1, Material-1, -60., Ply-2
0.0434783, 1, Material-1, -60., Ply-3
0.0434783, 1, Material-1, -60., Ply-4
0.0434783, 1, Material-1, -30., Ply-5
0.0434783, 1, Material-1, -60., Ply-6
0.0434783, 1, Material-1, -30., Ply-7
0.0434783, 1, Material-1, 90., Ply-8
0.0434783, 1, Material-1, -30., Ply-9
0.0434783, 1, Material-1, 30., Ply-10
0.0434783, 1, Material-1, 90., Ply-11
0.0434783, 1, Material-1, 30., Ply-12
0.0434783, 1, Material-1, 60., Ply-13
0.0434783, 1, Material-1, 30., Ply-14
0.0434783, 1, Material-1, 60., Ply-15
0.0434783, 1, Material-1, 60., Ply-16
0.0434783, 1, Material-1, 60., Ply-17
0.0434783, 1, Material-1, 60., Ply-18
0.0434783, 1, Material-1, 0., Ply-19
0.0434783, 1, Material-1, -60., Ply-20
0.0434783, 1, Material-1, -60., Ply-21
0.0434783, 1, Material-1, -60., Ply-22
0.0434783, 1, Material-1, -60., Ply-23
*End Part
**  
**
** ASSEMBLY
**
*Assembly, name=Assembly
**  
*Instance, name=bot-part-1, part=bot-part
*End Instance
**  
*Instance, name=fnm-1, part=fnm
          0.,           0.,        3.429
*End Instance
**  
*Instance, name=top-part-1, part=top-part
          0.,           0.,        4.191
*End Instance
**  
*Nset, nset=fixleft, instance=bot-part-1
  13,  14,  15,  16, 685, 686, 687, 688, 689, 690, 691, 692, 693, 694, 695, 696
 697, 698, 699, 700, 701, 702, 703, 704, 705, 706, 707, 708, 709, 710, 711, 712
 713, 714, 715, 716, 717, 718, 719, 720, 721, 722, 723, 724, 725, 726, 727, 728
 729, 730, 731, 732
*Elset, elset=fixleft, instance=bot-part-1, generate
 1573,  3325,    73
*Nset, nset=fixright, instance=bot-part-1
  17,  18,  19,  20, 733, 734, 735, 736, 737, 738, 739, 740, 741, 742, 743, 744
 745, 746, 747, 748, 749, 750, 751, 752, 753, 754, 755, 756, 757, 758, 759, 760
 761, 762, 763, 764, 765, 766, 767, 768, 769, 770, 771, 772, 773, 774, 775, 776
 777, 778, 779, 780
*Nset, nset=fixright, instance=top-part-1
  17,  18,  19,  20, 549, 550, 551, 552, 553, 554, 555, 556, 557, 558, 559, 560
 561, 562, 563, 564, 565, 566, 567, 568, 569, 570, 571, 572, 573, 574, 575, 576
 577, 578, 579, 580, 581, 582, 583, 584, 585, 586, 587, 588, 589, 590, 591, 592
 593, 594, 595, 596
*Elset, elset=fixright, instance=bot-part-1, generate
 3326,  3350,     1
*Elset, elset=fixright, instance=top-part-1, generate
 2176,  2200,     1
*Nset, nset=load, instance=top-part-1
  10,  12, 349, 350, 351, 352, 353, 354, 355, 356, 357, 358, 359, 360, 361, 362
 363, 364, 365, 366, 367, 368, 369, 370, 371, 372
*Elset, elset=load, instance=top-part-1
 1236, 1247, 1258, 1269, 1280, 1291, 1302, 1313, 1324, 1335, 1346, 1357, 1368, 1379, 1390, 1401
 1412, 1423, 1434, 1445, 1456, 1467, 1478, 1489, 1500, 1501, 1528, 1555, 1582, 1609, 1636, 1663
 1690, 1717, 1744, 1771, 1798, 1825, 1852, 1879, 1906, 1933, 1960, 1987, 2014, 2041, 2068, 2095
 2122, 2149
*Surface, type=NODE, name=fnm-1_botsurf_tie_CNS_, internal
fnm-1.botsurf_tie, 1.
*Surface, type=NODE, name=fnm-1_topsurf_tie_CNS_, internal
fnm-1.topsurf_tie, 1.
** Constraint: Constraint-1
*Tie, name=Constraint-1, adjust=yes
fnm-1_botsurf_tie_CNS_, bot-part-1.topsurf
** Constraint: Constraint-2
*Tie, name=Constraint-2, adjust=yes
fnm-1_topsurf_tie_CNS_, top-part-1.botsurf
*End Assembly
** 
** MATERIALS
** 
*Material, name=Material-1
*Elastic, type=ENGINEERING CONSTANTS
161000.,11380.,11380.,  0.32,  0.32,  0.45, 5200., 5200.
 3900.,
** 
** BOUNDARY CONDITIONS
** 
** Name: fixleft Type: Displacement/Rotation
*Boundary
fixleft, 1, 1
fixleft, 2, 2
fixleft, 3, 3
** Name: fixload Type: Displacement/Rotation
*Boundary
load, 1, 1
load, 2, 2
** Name: fixright Type: Displacement/Rotation
*Boundary
fixright, 1, 1
fixright, 2, 2
fixright, 3, 3
** Name: fixright-fnm Type: Displacement/Rotation
*Boundary
fnm-1.right_tie, 1, 1
fnm-1.right_tie, 2, 2
fnm-1.right_tie, 3, 3
** ----------------------------------------------------------------
** 
** STEP: loading
** 
*Step, name=loading, inc=40000
*Static
0.001, 4., 0.0001, 0.001
** 
** BOUNDARY CONDITIONS
** 
** Name: load Type: Velocity/Angular velocity
*Boundary, type=VELOCITY
load, 3, 3, 1.
** 
** OUTPUT REQUESTS
** 
*Restart, write, frequency=0
** 
** FIELD OUTPUT: F-Output-1
** 
*Output, field
*Node Output
RF, U
*Element Output, directions=YES
EE, S
** 
** FIELD OUTPUT: F-Output-3
** 
*Element Output, elset=top-part-1.CompositeLayup-1-1, directions=YES
1, 2, 3, 4, 5, 6, 7, 8, 9, 10, 11, 12, 13, 14, 15, 16
EE, S
*Element Output, elset=top-part-1.CompositeLayup-1-1, directions=YES
17, 18, 19, 20, 21, 22, 23
EE, S
** 
** FIELD OUTPUT: F-Output-2
** 
*Element Output, elset=bot-part-1.CompositeLayup-1-1, directions=YES
1, 2, 3, 4, 5, 6, 7, 8, 9, 10, 11, 12, 13, 14, 15, 16
EE, S
*Element Output, elset=bot-part-1.CompositeLayup-1-1, directions=YES
17, 18, 19, 20, 21, 22, 23, 24, 25, 26, 27
EE, S
** 
** HISTORY OUTPUT: H-Output-1
** 
*Output, history, variable=PRESELECT
*End Step
