*Heading
** Job name: CPclt-r1 Model name: CPclt-r1
** Generated by: Abaqus/CAE 6.12-2
*Preprint, echo=NO, model=NO, history=NO, contact=NO
**
** PARTS
**
*Part, name=bot-part
*Node
      1,   52.7999992,   12.6999998,           0.
      2,   52.7999992,   12.6999998,   1.55999994
      3,          73.,   12.6999998,   1.55999994
      4,          73.,   12.6999998,           0.
      5,   52.7999992,           0.,   1.55999994
      6,          73.,           0.,   1.55999994
      7,          73.,           0.,           0.
      8,   52.7999992,           0.,           0.
      9,          48.,   12.6999998,           0.
     10,          48.,   12.6999998,   1.55999994
     11,          48.,           0.,           0.
     12,          48.,           0.,   1.55999994
     13,           0.,           0.,   1.55999994
     14,           0.,           0.,           0.
     15,           0.,   12.6999998,   1.55999994
     16,           0.,   12.6999998,           0.
     17,         115.,   12.6999998,   1.55999994
     18,         115.,           0.,   1.55999994
     19,         115.,           0.,           0.
     20,         115.,   12.6999998,           0.
** ... 686 like lines cut
*Element, type=C3D8R
 1,   8, 138,  98,   1,   5, 137,  21,   2
 2, 138, 139,  97,  98, 137, 136,  22,  21
 3, 139, 140,  96,  97, 136, 135,  23,  22
 4, 140, 141,  95,  96, 135, 134,  24,  23
 5, 141, 142,  94,  95, 134, 133,  25,  24
 6, 142, 143,  93,  94, 133, 132,  26,  25
 7, 143, 144,  92,  93, 132, 131,  27,  26
 8, 144, 145,  91,  92, 131, 130,  28,  27
 9, 145, 146,  90,  91, 130, 129,  29,  28
10, 146, 147,  89,  90, 129, 128,  30,  29
11, 147, 148,  88,  89, 128, 127,  31,  30
12, 148, 149,  87,  88, 127, 126,  32,  31
13, 149, 150,  86,  87, 126, 125,  33,  32
14, 150, 151,  85,  86, 125, 124,  34,  33
15, 151, 152,  84,  85, 124, 123,  35,  34
16, 152, 153,  83,  84, 123, 122,  36,  35
17, 153, 154,  82,  83, 122, 121,  37,  36
18, 154, 155,  81,  82, 121, 120,  38,  37
19, 155, 156,  80,  81, 120, 119,  39,  38
20, 156, 157,  79,  80, 119, 118,  40,  39
** ... 155 like lines cut
*Nset, nset=_PickedSet37, internal, generate
   1,  704,    1
*Elset, elset=_PickedSet37, internal, generate
   1,  175,    1
*Elset, elset=_topsurf_S2, internal, generate
   1,  175,    1
*Surface, type=ELEMENT, name=topsurf
_topsurf_S2, S2
*Orientation, name=Ori-1
          1.,           0.,           0.,           0.,           1.,           0.
3, 0.
** Region: (CompositeLayup-1-1: Generated From Layup)
*Elset, elset=CompositeLayup-1-1, generate
   1,  175,    1
** Section: CompositeLayup-1-1
*Solid Section, elset=CompositeLayup-1-1, composite, orientation=Ori-1, stack direction=3, layup=CompositeLayup-1
0.0769231, 1, Material-1, 0., Ply-1
0.0769231, 1, Material-1, 90., Ply-2
0.0769231, 1, Material-1, 0., Ply-3
0.0769231, 1, Material-1, 0., Ply-4
0.0769231, 1, Material-1, 90., Ply-5
0.0769231, 1, Material-1, 90., Ply-6
0.0769231, 1, Material-1, 90., Ply-7
0.0769231, 1, Material-1, 90., Ply-8
0.0769231, 1, Material-1, 90., Ply-9
0.0769231, 1, Material-1, 90., Ply-10
0.0769231, 1, Material-1, 0., Ply-11
0.0769231, 1, Material-1, 0., Ply-12
0.0769231, 1, Material-1, 90., Ply-13
*End Part
**  
*Part, name=fnm
*Node
      1,   52.7999992,   12.6999998,           0.
      2,   52.7999992,   12.6999998,  0.720000029
      3,          73.,   12.6999998,  0.720000029
      4,          73.,   12.6999998,           0.
      5,   52.7999992,           0.,  0.720000029
      6,          73.,           0.,  0.720000029
      7,          73.,           0.,           0.
      8,   52.7999992,           0.,           0.
      9,          48.,   12.6999998,           0.
     10,          48.,   12.6999998,  0.720000029
     11,          48.,           0.,           0.
     12,          48.,           0.,  0.720000029
     13,           0.,           0.,  0.720000029
     14,           0.,           0.,           0.
     15,           0.,   12.6999998,  0.720000029
     16,           0.,   12.6999998,           0.
     17,         115.,   12.6999998,  0.720000029
     18,         115.,           0.,  0.720000029
     19,         115.,           0.,           0.
     20,         115.,   12.6999998,           0.
** ... 684 like lines cut
*Element, type=C3D8R
 1,   8, 138,  98,   1,   5, 137,  21,   2
 2, 138, 139,  97,  98, 137, 136,  22,  21
 3, 139, 140,  96,  97, 136, 135,  23,  22
 4, 140, 141,  95,  96, 135, 134,  24,  23
 5, 141, 142,  94,  95, 134, 133,  25,  24
 6, 142, 143,  93,  94, 133, 132,  26,  25
 7, 143, 144,  92,  93, 132, 131,  27,  26
 8, 144, 145,  91,  92, 131, 130,  28,  27
 9, 145, 146,  90,  91, 130, 129,  29,  28
10, 146, 147,  89,  90, 129, 128,  30,  29
11, 147, 148,  88,  89, 128, 127,  31,  30
12, 148, 149,  87,  88, 127, 126,  32,  31
13, 149, 150,  86,  87, 126, 125,  33,  32
14, 150, 151,  85,  86, 125, 124,  34,  33
15, 151, 152,  84,  85, 124, 123,  35,  34
16, 152, 153,  83,  84, 123, 122,  36,  35
17, 153, 154,  82,  83, 122, 121,  37,  36
18, 154, 155,  81,  82, 121, 120,  38,  37
19, 155, 156,  80,  81, 120, 119,  39,  38
20, 156, 157,  79,  80, 119, 118,  40,  39
** ... 155 like lines cut
*Elset, elset=predelam, generate
  51,  117,    1
*Nset, nset=right_tie, generate
 17,  20,   1
*Nset, nset=topsurf_tie
   2,   3,   5,   6,  10,  12,  13,  15,  17,  18,  21,  22,  23,  24,  25,  26
  27,  28,  29,  30,  31,  32,  33,  34,  35,  36,  37,  38,  39,  40,  41,  42
  43,  44,  45,  46,  47,  48,  49,  50,  51,  52,  53,  54,  55,  56,  57,  58
  59,  99, 100, 101, 102, 103, 104, 105, 106, 107, 108, 109, 110, 111, 112, 113
 114, 115, 116, 117, 118, 119, 120, 121, 122, 123, 124, 125, 126, 127, 128, 129
 130, 131, 132, 133, 134, 135, 136, 137, 186, 187, 188, 189, 190, 191, 192, 193
 194, 204, 205, 206, 207, 208, 209, 210, 211, 212, 213, 214, 215, 216, 217, 218
 219, 220, 221, 222, 223, 224, 225, 226, 227, 228, 229, 230, 231, 232, 233, 234
 235, 236, 237, 238, 239, 240, 241, 242, 243, 244, 245, 246, 247, 248, 249, 250
 251, 252, 253, 254, 255, 256, 257, 258, 259, 260, 261, 262, 263, 264, 265, 266
 267, 268, 269, 270, 271, 272, 273, 274, 275, 276, 277, 278, 345, 346, 347, 348
 349, 350, 351, 352, 353, 354, 355, 356, 357, 358, 359, 360, 361, 362, 363, 364
 365, 366, 367, 368, 369, 370, 371, 372, 373, 374, 375, 376, 377, 378, 379, 380
 381, 382, 383, 384, 385, 386, 387, 388, 389, 390, 391, 392, 393, 394, 395, 396
 397, 398, 399, 400, 401, 402, 403, 404, 405, 406, 407, 408, 409, 410, 534, 535
 536, 537, 538, 539, 540, 541, 542, 543, 544, 545, 546, 547, 548, 549, 550, 551
 552, 553, 554, 555, 556, 557, 558, 559, 560, 561, 562, 563, 564, 565, 566, 567
 568, 569, 570, 571, 572, 573, 574, 575, 576, 577, 578, 579, 580, 581, 582, 583
 584, 585, 586, 587, 588, 589, 590, 648, 649, 650, 651, 652, 653, 654, 655, 656
 657, 658, 659, 660, 661, 662, 663, 664, 665, 666, 667, 668, 669, 670, 671, 672
 673, 674, 675, 676, 677, 678, 679, 680, 681, 682, 683, 684, 685, 686, 687, 688
 689, 690, 691, 692, 693, 694, 695, 696, 697, 698, 699, 700, 701, 702, 703, 704
*Nset, nset=botsurf_tie
   1,   4,   7,   8,   9,  11,  14,  16,  19,  20,  60,  61,  62,  63,  64,  65
  66,  67,  68,  69,  70,  71,  72,  73,  74,  75,  76,  77,  78,  79,  80,  81
  82,  83,  84,  85,  86,  87,  88,  89,  90,  91,  92,  93,  94,  95,  96,  97
  98, 138, 139, 140, 141, 142, 143, 144, 145, 146, 147, 148, 149, 150, 151, 152
 153, 154, 155, 156, 157, 158, 159, 160, 161, 162, 163, 164, 165, 166, 167, 168
 169, 170, 171, 172, 173, 174, 175, 176, 177, 178, 179, 180, 181, 182, 183, 184
 185, 195, 196, 197, 198, 199, 200, 201, 202, 203, 279, 280, 281, 282, 283, 284
 285, 286, 287, 288, 289, 290, 291, 292, 293, 294, 295, 296, 297, 298, 299, 300
 301, 302, 303, 304, 305, 306, 307, 308, 309, 310, 311, 312, 313, 314, 315, 316
 317, 318, 319, 320, 321, 322, 323, 324, 325, 326, 327, 328, 329, 330, 331, 332
 333, 334, 335, 336, 337, 338, 339, 340, 341, 342, 343, 344, 411, 412, 413, 414
 415, 416, 417, 418, 419, 420, 421, 422, 423, 424, 425, 426, 427, 428, 429, 430
 431, 432, 433, 434, 435, 436, 437, 438, 439, 440, 441, 442, 443, 444, 445, 446
 447, 448, 449, 450, 451, 452, 453, 454, 455, 456, 457, 458, 459, 460, 461, 462
 463, 464, 465, 466, 467, 468, 469, 470, 471, 472, 473, 474, 475, 476, 477, 478
 479, 480, 481, 482, 483, 484, 485, 486, 487, 488, 489, 490, 491, 492, 493, 494
 495, 496, 497, 498, 499, 500, 501, 502, 503, 504, 505, 506, 507, 508, 509, 510
 511, 512, 513, 514, 515, 516, 517, 518, 519, 520, 521, 522, 523, 524, 525, 526
 527, 528, 529, 530, 531, 532, 533, 591, 592, 593, 594, 595, 596, 597, 598, 599
 600, 601, 602, 603, 604, 605, 606, 607, 608, 609, 610, 611, 612, 613, 614, 615
 616, 617, 618, 619, 620, 621, 622, 623, 624, 625, 626, 627, 628, 629, 630, 631
 632, 633, 634, 635, 636, 637, 638, 639, 640, 641, 642, 643, 644, 645, 646, 647
*Nset, nset=planestrain, generate
   1,  704,    1
*End Part
**  
*Part, name=top-part
*Node
      1,          73.,   12.6999998,           3.
      2,          73.,   12.6999998,           0.
      3,   52.7999992,   12.6999998,           0.
      4,   52.7999992,   12.6999998,           3.
      5,          73.,           0.,           0.
      6,   52.7999992,           0.,           0.
      7,   52.7999992,           0.,           3.
      8,          73.,           0.,           3.
      9,          48.,           0.,           3.
     10,          48.,           0.,           0.
     11,          48.,   12.6999998,           3.
     12,          48.,   12.6999998,           0.
     13,           0.,   12.6999998,           0.
     14,           0.,   12.6999998,           3.
     15,           0.,           0.,           0.
     16,           0.,           0.,           3.
     17,         115.,   12.6999998,           3.
     18,         115.,           0.,           3.
     19,         115.,           0.,           0.
     20,         115.,   12.6999998,           0.
** ... 512 like lines cut
*Element, type=C3D8R
 1, 137,   5,   2,  21, 138,   8,   1,  98
 2, 136, 137,  21,  22, 139, 138,  98,  97
 3, 135, 136,  22,  23, 140, 139,  97,  96
 4, 134, 135,  23,  24, 141, 140,  96,  95
 5, 133, 134,  24,  25, 142, 141,  95,  94
 6, 132, 133,  25,  26, 143, 142,  94,  93
 7, 131, 132,  26,  27, 144, 143,  93,  92
 8, 130, 131,  27,  28, 145, 144,  92,  91
 9, 129, 130,  28,  29, 146, 145,  91,  90
10, 128, 129,  29,  30, 147, 146,  90,  89
11, 127, 128,  30,  31, 148, 147,  89,  88
12, 126, 127,  31,  32, 149, 148,  88,  87
13, 125, 126,  32,  33, 150, 149,  87,  86
14, 124, 125,  33,  34, 151, 150,  86,  85
15, 123, 124,  34,  35, 152, 151,  85,  84
16, 122, 123,  35,  36, 153, 152,  84,  83
17, 121, 122,  36,  37, 154, 153,  83,  82
18, 120, 121,  37,  38, 155, 154,  82,  81
19, 119, 120,  38,  39, 156, 155,  81,  80
20, 118, 119,  39,  40, 157, 156,  80,  79
** ... 112 like lines cut
*Nset, nset=_PickedSet36, internal, generate
   1,  532,    1
*Elset, elset=_PickedSet36, internal, generate
   1,  132,    1
*Elset, elset=_botsurf_S1, internal, generate
   1,  132,    1
*Surface, type=ELEMENT, name=botsurf
_botsurf_S1, S1
*Orientation, name=Ori-1
          1.,           0.,           0.,           0.,           1.,           0.
3, 0.
** Region: (CompositeLayup-1-1: Generated From Layup)
*Elset, elset=CompositeLayup-1-1, generate
   1,  132,    1
** Section: CompositeLayup-1-1
*Solid Section, elset=CompositeLayup-1-1, composite, orientation=Ori-1, stack direction=3, layup=CompositeLayup-1
0.04, 1, Material-1, 0., Ply-1
0.04, 1, Material-1, 0., Ply-2
0.04, 1, Material-1, 0., Ply-3
0.04, 1, Material-1, 0., Ply-4
0.04, 1, Material-1, 0., Ply-5
0.04, 1, Material-1, 0., Ply-6
0.04, 1, Material-1, 0., Ply-7
0.04, 1, Material-1, 0., Ply-8
0.04, 1, Material-1, 0., Ply-9
0.04, 1, Material-1, 90., Ply-10
0.04, 1, Material-1, 90., Ply-11
0.04, 1, Material-1, 90., Ply-12
0.04, 1, Material-1, 90., Ply-13
0.04, 1, Material-1, 90., Ply-14
0.04, 1, Material-1, 90., Ply-15
0.04, 1, Material-1, 90., Ply-16
0.04, 1, Material-1, 90., Ply-17
0.04, 1, Material-1, 90., Ply-18
0.04, 1, Material-1, 90., Ply-19
0.04, 1, Material-1, 90., Ply-20
** ... 5 like lines cut
*End Part
**  
**
** ASSEMBLY
**
*Assembly, name=Assembly
**  
*Instance, name=bot-part-1, part=bot-part
*End Instance
**  
*Instance, name=fnm-1, part=fnm
          0.,           0.,         1.56
*End Instance
**  
*Instance, name=top-part-1, part=top-part
          0.,           0.,         2.28
*End Instance
**  
*Nset, nset=fixleft, instance=bot-part-1, generate
 13,  16,   1
*Elset, elset=fixleft, instance=bot-part-1
 117,
*Nset, nset=fixright, instance=bot-part-1, generate
 17,  20,   1
*Nset, nset=fixright, instance=top-part-1, generate
 17,  20,   1
*Elset, elset=fixright, instance=bot-part-1
 175,
*Elset, elset=fixright, instance=top-part-1
 75,
*Nset, nset=load, instance=top-part-1
 4, 7
*Elset, elset=load, instance=top-part-1
 40, 41
*Nset, nset=_PickedSet23, internal, instance=bot-part-1, generate
   1,  704,    1
*Nset, nset=_PickedSet23, internal, instance=top-part-1, generate
   1,  532,    1
*Elset, elset=_PickedSet23, internal, instance=bot-part-1, generate
   1,  175,    1
*Elset, elset=_PickedSet23, internal, instance=top-part-1, generate
   1,  132,    1
*Surface, type=NODE, name=fnm-1_botsurf_tie_CNS_, internal
fnm-1.botsurf_tie, 1.
*Surface, type=NODE, name=fnm-1_topsurf_tie_CNS_, internal
fnm-1.topsurf_tie, 1.
** Constraint: Constraint-1
*Tie, name=Constraint-1, adjust=yes
fnm-1_botsurf_tie_CNS_, bot-part-1.topsurf
** Constraint: Constraint-2
*Tie, name=Constraint-2, adjust=yes
fnm-1_topsurf_tie_CNS_, top-part-1.botsurf
** added nsets for constraint equations **
*Nset, nset=slaveleft, instance=bot-part-1
99998
*Nset, nset=slaveright, instance=bot-part-1
99999
** constraint equations for fix left and right bcds
*EQUATION
2
fixleft,  1, 1, slaveleft,  1, -1
*EQUATION
2
fixright, 1, 1, slaveright, 1, -1
*End Assembly
** 
** MATERIALS
** 
*Material, name=Material-1
*Elastic, type=ENGINEERING CONSTANTS
161000.,11400.,11400.,  0.32,  0.32, 0.436, 5170., 5170.
 3980.,
** 
** BOUNDARY CONDITIONS
** 
** Name: fixleft Type: Displacement/Rotation
*Boundary
fixleft, 2, 2
fixleft, 3, 3
** Name: fixload Type: Displacement/Rotation
*Boundary
load, 1, 1
load, 2, 2
** Name: fixright Type: Displacement/Rotation
*Boundary
fixright, 2, 2
fixright, 3, 3
** Name: fixright-fnm Type: Displacement/Rotation
*Boundary
fnm-1.right_tie, 2, 2
fnm-1.right_tie, 3, 3
** Name: planestrain Type: Displacement/Rotation
*Boundary
_PickedSet23, 2, 2
** Name: planestrain-fnm Type: Displacement/Rotation
*Boundary
fnm-1.planestrain, 2, 2
** ----------------------------------------------------------------
** 
** STEP: loading
** 
*Step, name=loading, inc=10000
*Static
0.001, 3., 0.0001, 0.001
** 
** BOUNDARY CONDITIONS
** 
** Name: load Type: Velocity/Angular velocity
*Boundary, type=VELOCITY
load, 3, 3, 1.
** 
** OUTPUT REQUESTS
** 
*Restart, write, frequency=0
** 
** FIELD OUTPUT: F-Output-1
** 
*Output, field
*Node Output
RF, U
*Element Output, directions=YES
EE, S
** 
** FIELD OUTPUT: F-Output-2
** 
*Element Output, elset=bot-part-1.CompositeLayup-1-1, directions=YES
1, 2, 3, 4, 5, 6, 7, 8, 9, 10, 11, 12, 13
EE, S
** 
** FIELD OUTPUT: F-Output-3
** 
*Element Output, elset=top-part-1.CompositeLayup-1-1, directions=YES
1, 2, 3, 4, 5, 6, 7, 8, 9, 10, 11, 12, 13, 14, 15, 16
EE, S
*Element Output, elset=top-part-1.CompositeLayup-1-1, directions=YES
17, 18, 19, 20, 21, 22, 23, 24, 25
EE, S
** 
** HISTORY OUTPUT: H-Output-1
** 
*Output, history, variable=PRESELECT
*End Step
