*Heading
** Job name: CPclt-r1-mesh2 Model name: CPclt-r1-mesh2
** Generated by: Abaqus/CAE 6.12-2
*Preprint, echo=NO, model=NO, history=NO, contact=NO
**
** PARTS
**
*Part, name=bot-part
*Node
      1,   52.7999992,   12.6999998,           0.
      2,   52.7999992,   12.6999998,   1.55999994
      3,          73.,   12.6999998,   1.55999994
      4,          73.,   12.6999998,           0.
      5,   52.7999992,           0.,   1.55999994
      6,          73.,           0.,   1.55999994
      7,          73.,           0.,           0.
      8,   52.7999992,           0.,           0.
      9,          48.,   12.6999998,           0.
     10,          48.,   12.6999998,   1.55999994
     11,          48.,           0.,           0.
     12,          48.,           0.,   1.55999994
     13,           0.,           0.,   1.55999994
     14,           0.,           0.,           0.
     15,           0.,   12.6999998,   1.55999994
     16,           0.,   12.6999998,           0.
     17,         115.,   12.6999998,   1.55999994
     18,         115.,           0.,   1.55999994
     19,         115.,           0.,           0.
     20,         115.,   12.6999998,           0.
** ... 1048 like lines cut
*Element, type=C3D8R
 1,   8, 261, 180,   1,   5, 260,  21,   2
 2, 261, 262, 179, 180, 260, 259,  22,  21
 3, 262, 263, 178, 179, 259, 258,  23,  22
 4, 263, 264, 177, 178, 258, 257,  24,  23
 5, 264, 265, 176, 177, 257, 256,  25,  24
 6, 265, 266, 175, 176, 256, 255,  26,  25
 7, 266, 267, 174, 175, 255, 254,  27,  26
 8, 267, 268, 173, 174, 254, 253,  28,  27
 9, 268, 269, 172, 173, 253, 252,  29,  28
10, 269, 270, 171, 172, 252, 251,  30,  29
11, 270, 271, 170, 171, 251, 250,  31,  30
12, 271, 272, 169, 170, 250, 249,  32,  31
13, 272, 273, 168, 169, 249, 248,  33,  32
14, 273, 274, 167, 168, 248, 247,  34,  33
15, 274, 275, 166, 167, 247, 246,  35,  34
16, 275, 276, 165, 166, 246, 245,  36,  35
17, 276, 277, 164, 165, 245, 244,  37,  36
18, 277, 278, 163, 164, 244, 243,  38,  37
19, 278, 279, 162, 163, 243, 242,  39,  38
20, 279, 280, 161, 162, 242, 241,  40,  39
** ... 246 like lines cut
*Nset, nset=_PickedSet37, internal, generate
    1,  1068,     1
*Elset, elset=_PickedSet37, internal, generate
   1,  266,    1
*Elset, elset=_topsurf_S2, internal, generate
   1,  266,    1
*Surface, type=ELEMENT, name=topsurf
_topsurf_S2, S2
*Orientation, name=Ori-1
          1.,           0.,           0.,           0.,           1.,           0.
3, 0.
** Region: (CompositeLayup-1-1: Generated From Layup)
*Elset, elset=CompositeLayup-1-1, generate
   1,  266,    1
** Section: CompositeLayup-1-1
*Solid Section, elset=CompositeLayup-1-1, composite, orientation=Ori-1, stack direction=3, layup=CompositeLayup-1
0.0769231, 1, Material-1, 0., Ply-1
0.0769231, 1, Material-1, 90., Ply-2
0.0769231, 1, Material-1, 0., Ply-3
0.0769231, 1, Material-1, 0., Ply-4
0.0769231, 1, Material-1, 90., Ply-5
0.0769231, 1, Material-1, 90., Ply-6
0.0769231, 1, Material-1, 90., Ply-7
0.0769231, 1, Material-1, 90., Ply-8
0.0769231, 1, Material-1, 90., Ply-9
0.0769231, 1, Material-1, 90., Ply-10
0.0769231, 1, Material-1, 0., Ply-11
0.0769231, 1, Material-1, 0., Ply-12
0.0769231, 1, Material-1, 90., Ply-13
*End Part
**  
*Part, name=fnm
*Node
      1,   52.7999992,   12.6999998,           0.
      2,   52.7999992,   12.6999998,  0.720000029
      3,          73.,   12.6999998,  0.720000029
      4,          73.,   12.6999998,           0.
      5,   52.7999992,           0.,  0.720000029
      6,          73.,           0.,  0.720000029
      7,          73.,           0.,           0.
      8,   52.7999992,           0.,           0.
      9,          48.,   12.6999998,           0.
     10,          48.,   12.6999998,  0.720000029
     11,          48.,           0.,           0.
     12,          48.,           0.,  0.720000029
     13,           0.,           0.,  0.720000029
     14,           0.,           0.,           0.
     15,           0.,   12.6999998,  0.720000029
     16,           0.,   12.6999998,           0.
     17,         115.,   12.6999998,  0.720000029
     18,         115.,           0.,  0.720000029
     19,         115.,           0.,           0.
     20,         115.,   12.6999998,           0.
** ... 1048 like lines cut
*Element, type=C3D8R
 1,   8, 261, 180,   1,   5, 260,  21,   2
 2, 261, 262, 179, 180, 260, 259,  22,  21
 3, 262, 263, 178, 179, 259, 258,  23,  22
 4, 263, 264, 177, 178, 258, 257,  24,  23
 5, 264, 265, 176, 177, 257, 256,  25,  24
 6, 265, 266, 175, 176, 256, 255,  26,  25
 7, 266, 267, 174, 175, 255, 254,  27,  26
 8, 267, 268, 173, 174, 254, 253,  28,  27
 9, 268, 269, 172, 173, 253, 252,  29,  28
10, 269, 270, 171, 172, 252, 251,  30,  29
11, 270, 271, 170, 171, 251, 250,  31,  30
12, 271, 272, 169, 170, 250, 249,  32,  31
13, 272, 273, 168, 169, 249, 248,  33,  32
14, 273, 274, 167, 168, 248, 247,  34,  33
15, 274, 275, 166, 167, 247, 246,  35,  34
16, 275, 276, 165, 166, 246, 245,  36,  35
17, 276, 277, 164, 165, 245, 244,  37,  36
18, 277, 278, 163, 164, 244, 243,  38,  37
19, 278, 279, 162, 163, 243, 242,  39,  38
20, 279, 280, 161, 162, 242, 241,  40,  39
** ... 246 like lines cut
*Elset, elset=predelam, generate
 101,  189,    1
*Nset, nset=right_tie, generate
 17,  20,   1
*Nset, nset=planestrain, generate
    1,  1068,     1
*Nset, nset=topsurf_tie
    2,    3,    5,    6,   10,   12,   13,   15,   17,   18,   21,   22,   23,   24,   25,   26
   27,   28,   29,   30,   31,   32,   33,   34,   35,   36,   37,   38,   39,   40,   41,   42
   43,   44,   45,   46,   47,   48,   49,   50,   51,   52,   53,   54,   55,   56,   57,   58
   59,   60,   61,   62,   63,   64,   65,   66,   67,   68,   69,   70,   71,   72,   73,   74
   75,   76,   77,   78,   79,   80,   81,   82,   83,   84,   85,   86,   87,   88,   89,   90
   91,   92,   93,   94,   95,   96,   97,   98,   99,  100,  181,  182,  183,  184,  185,  186
  187,  188,  189,  190,  191,  192,  193,  194,  195,  196,  197,  198,  199,  200,  201,  202
  203,  204,  205,  206,  207,  208,  209,  210,  211,  212,  213,  214,  215,  216,  217,  218
  219,  220,  221,  222,  223,  224,  225,  226,  227,  228,  229,  230,  231,  232,  233,  234
  235,  236,  237,  238,  239,  240,  241,  242,  243,  244,  245,  246,  247,  248,  249,  250
  251,  252,  253,  254,  255,  256,  257,  258,  259,  260,  359,  360,  361,  362,  363,  364
  365,  366,  367,  368,  369,  370,  371,  372,  373,  374,  375,  376,  395,  396,  397,  398
  399,  400,  401,  402,  403,  404,  405,  406,  407,  408,  409,  410,  411,  412,  413,  414
  415,  416,  417,  418,  419,  420,  421,  422,  423,  424,  425,  426,  427,  428,  429,  430
  431,  432,  433,  434,  435,  436,  437,  438,  439,  440,  441,  442,  443,  444,  445,  446
  447,  448,  449,  450,  451,  452,  453,  454,  455,  456,  457,  458,  459,  460,  461,  462
  463,  464,  465,  466,  467,  468,  469,  470,  471,  472,  473,  474,  475,  476,  477,  478
  479,  480,  481,  482,  483,  484,  485,  486,  487,  488,  489,  490,  491,  492,  493,  494
  495,  496,  497,  498,  499,  500,  589,  590,  591,  592,  593,  594,  595,  596,  597,  598
  599,  600,  601,  602,  603,  604,  605,  606,  607,  608,  609,  610,  611,  612,  613,  614
** ... 14 like lines cut
*Nset, nset=botsurf_tie
   1,   4,   7,   8,   9,  11,  14,  16,  19,  20, 101, 102, 103, 104, 105, 106
 107, 108, 109, 110, 111, 112, 113, 114, 115, 116, 117, 118, 119, 120, 121, 122
 123, 124, 125, 126, 127, 128, 129, 130, 131, 132, 133, 134, 135, 136, 137, 138
 139, 140, 141, 142, 143, 144, 145, 146, 147, 148, 149, 150, 151, 152, 153, 154
 155, 156, 157, 158, 159, 160, 161, 162, 163, 164, 165, 166, 167, 168, 169, 170
 171, 172, 173, 174, 175, 176, 177, 178, 179, 180, 261, 262, 263, 264, 265, 266
 267, 268, 269, 270, 271, 272, 273, 274, 275, 276, 277, 278, 279, 280, 281, 282
 283, 284, 285, 286, 287, 288, 289, 290, 291, 292, 293, 294, 295, 296, 297, 298
 299, 300, 301, 302, 303, 304, 305, 306, 307, 308, 309, 310, 311, 312, 313, 314
 315, 316, 317, 318, 319, 320, 321, 322, 323, 324, 325, 326, 327, 328, 329, 330
 331, 332, 333, 334, 335, 336, 337, 338, 339, 340, 341, 342, 343, 344, 345, 346
 347, 348, 349, 350, 351, 352, 353, 354, 355, 356, 357, 358, 377, 378, 379, 380
 381, 382, 383, 384, 385, 386, 387, 388, 389, 390, 391, 392, 393, 394, 501, 502
 503, 504, 505, 506, 507, 508, 509, 510, 511, 512, 513, 514, 515, 516, 517, 518
 519, 520, 521, 522, 523, 524, 525, 526, 527, 528, 529, 530, 531, 532, 533, 534
 535, 536, 537, 538, 539, 540, 541, 542, 543, 544, 545, 546, 547, 548, 549, 550
 551, 552, 553, 554, 555, 556, 557, 558, 559, 560, 561, 562, 563, 564, 565, 566
 567, 568, 569, 570, 571, 572, 573, 574, 575, 576, 577, 578, 579, 580, 581, 582
 583, 584, 585, 586, 587, 588, 677, 678, 679, 680, 681, 682, 683, 684, 685, 686
 687, 688, 689, 690, 691, 692, 693, 694, 695, 696, 697, 698, 699, 700, 701, 702
** ... 14 like lines cut
*End Part
**  
*Part, name=top-part
*Node
      1,          73.,   12.6999998,           3.
      2,          73.,   12.6999998,           0.
      3,   52.7999992,   12.6999998,           0.
      4,   52.7999992,   12.6999998,           3.
      5,          73.,           0.,           0.
      6,   52.7999992,           0.,           0.
      7,   52.7999992,           0.,           3.
      8,          73.,           0.,           3.
      9,          48.,           0.,           3.
     10,          48.,           0.,           0.
     11,          48.,   12.6999998,           3.
     12,          48.,   12.6999998,           0.
     13,           0.,   12.6999998,           0.
     14,           0.,   12.6999998,           3.
     15,           0.,           0.,           0.
     16,           0.,           0.,           3.
     17,         115.,   12.6999998,           3.
     18,         115.,           0.,           3.
     19,         115.,           0.,           0.
     20,         115.,   12.6999998,           0.
** ... 888 like lines cut
*Element, type=C3D8R
 1, 260,   5,   2,  21, 261,   8,   1, 180
 2, 259, 260,  21,  22, 262, 261, 180, 179
 3, 258, 259,  22,  23, 263, 262, 179, 178
 4, 257, 258,  23,  24, 264, 263, 178, 177
 5, 256, 257,  24,  25, 265, 264, 177, 176
 6, 255, 256,  25,  26, 266, 265, 176, 175
 7, 254, 255,  26,  27, 267, 266, 175, 174
 8, 253, 254,  27,  28, 268, 267, 174, 173
 9, 252, 253,  28,  29, 269, 268, 173, 172
10, 251, 252,  29,  30, 270, 269, 172, 171
11, 250, 251,  30,  31, 271, 270, 171, 170
12, 249, 250,  31,  32, 272, 271, 170, 169
13, 248, 249,  32,  33, 273, 272, 169, 168
14, 247, 248,  33,  34, 274, 273, 168, 167
15, 246, 247,  34,  35, 275, 274, 167, 166
16, 245, 246,  35,  36, 276, 275, 166, 165
17, 244, 245,  36,  37, 277, 276, 165, 164
18, 243, 244,  37,  38, 278, 277, 164, 163
19, 242, 243,  38,  39, 279, 278, 163, 162
20, 241, 242,  39,  40, 280, 279, 162, 161
** ... 206 like lines cut
*Nset, nset=_PickedSet36, internal, generate
   1,  908,    1
*Elset, elset=_PickedSet36, internal, generate
   1,  226,    1
*Elset, elset=_botsurf_S1, internal, generate
   1,  226,    1
*Surface, type=ELEMENT, name=botsurf
_botsurf_S1, S1
*Orientation, name=Ori-1
          1.,           0.,           0.,           0.,           1.,           0.
3, 0.
** Region: (CompositeLayup-1-1: Generated From Layup)
*Elset, elset=CompositeLayup-1-1, generate
   1,  226,    1
** Section: CompositeLayup-1-1
*Solid Section, elset=CompositeLayup-1-1, composite, orientation=Ori-1, stack direction=3, layup=CompositeLayup-1
0.04, 1, Material-1, 0., Ply-1
0.04, 1, Material-1, 0., Ply-2
0.04, 1, Material-1, 0., Ply-3
0.04, 1, Material-1, 0., Ply-4
0.04, 1, Material-1, 0., Ply-5
0.04, 1, Material-1, 0., Ply-6
0.04, 1, Material-1, 0., Ply-7
0.04, 1, Material-1, 0., Ply-8
0.04, 1, Material-1, 0., Ply-9
0.04, 1, Material-1, 90., Ply-10
0.04, 1, Material-1, 90., Ply-11
0.04, 1, Material-1, 90., Ply-12
0.04, 1, Material-1, 90., Ply-13
0.04, 1, Material-1, 90., Ply-14
0.04, 1, Material-1, 90., Ply-15
0.04, 1, Material-1, 90., Ply-16
0.04, 1, Material-1, 90., Ply-17
0.04, 1, Material-1, 90., Ply-18
0.04, 1, Material-1, 90., Ply-19
0.04, 1, Material-1, 90., Ply-20
** ... 5 like lines cut
*End Part
**  
**
** ASSEMBLY
**
*Assembly, name=Assembly
**  
*Instance, name=bot-part-1, part=bot-part
*End Instance
**  
*Instance, name=fnm-1, part=fnm
          0.,           0.,         1.56
*End Instance
**  
*Instance, name=top-part-1, part=top-part
          0.,           0.,         2.28
*End Instance
**  
*Nset, nset=fixleft, instance=bot-part-1, generate
 13,  16,   1
*Elset, elset=fixleft, instance=bot-part-1
 189,
*Nset, nset=fixright, instance=bot-part-1, generate
 17,  20,   1
*Nset, nset=fixright, instance=top-part-1, generate
 17,  20,   1
*Elset, elset=fixright, instance=bot-part-1
 266,
*Elset, elset=fixright, instance=top-part-1
 150,
*Nset, nset=load, instance=top-part-1
 4, 7
*Elset, elset=load, instance=top-part-1
 81, 82
*Nset, nset=_PickedSet23, internal, instance=bot-part-1, generate
    1,  1068,     1
*Nset, nset=_PickedSet23, internal, instance=top-part-1, generate
   1,  908,    1
*Elset, elset=_PickedSet23, internal, instance=bot-part-1, generate
   1,  266,    1
*Elset, elset=_PickedSet23, internal, instance=top-part-1, generate
   1,  226,    1
*Surface, type=NODE, name=fnm-1_botsurf_tie_CNS_, internal
fnm-1.botsurf_tie, 1.
*Surface, type=NODE, name=fnm-1_topsurf_tie_CNS_, internal
fnm-1.topsurf_tie, 1.
** Constraint: Constraint-1
*Tie, name=Constraint-1, adjust=yes
fnm-1_botsurf_tie_CNS_, bot-part-1.topsurf
** Constraint: Constraint-2
*Tie, name=Constraint-2, adjust=yes
fnm-1_topsurf_tie_CNS_, top-part-1.botsurf
*End Assembly
** 
** MATERIALS
** 
*Material, name=Material-1
*Elastic, type=ENGINEERING CONSTANTS
161000.,11400.,11400.,  0.32,  0.32, 0.436, 5170., 5170.
 3980.,
** 
** BOUNDARY CONDITIONS
** 
** Name: fixleft Type: Displacement/Rotation
*Boundary
fixleft, 1, 1
fixleft, 2, 2
fixleft, 3, 3
** Name: fixload Type: Displacement/Rotation
*Boundary
load, 1, 1
load, 2, 2
** Name: fixright Type: Displacement/Rotation
*Boundary
fixright, 1, 1
fixright, 2, 2
fixright, 3, 3
** Name: fixright-fnm Type: Displacement/Rotation
*Boundary
fnm-1.right_tie, 1, 1
fnm-1.right_tie, 2, 2
fnm-1.right_tie, 3, 3
** Name: planestrain Type: Displacement/Rotation
*Boundary
_PickedSet23, 2, 2
** Name: planestrain-fnm Type: Displacement/Rotation
*Boundary
fnm-1.planestrain, 2, 2
** ----------------------------------------------------------------
** 
** STEP: loading
** 
*Step, name=loading, inc=10000
*Static
0.001, 3., 0.0001, 0.001
** 
** BOUNDARY CONDITIONS
** 
** Name: load Type: Velocity/Angular velocity
*Boundary, type=VELOCITY
load, 3, 3, 1.
** 
** OUTPUT REQUESTS
** 
*Restart, write, frequency=0
** 
** FIELD OUTPUT: F-Output-1
** 
*Output, field
*Node Output
RF, U
*Element Output, directions=YES
EE, S
** 
** FIELD OUTPUT: F-Output-2
** 
*Element Output, elset=bot-part-1.CompositeLayup-1-1, directions=YES
1, 2, 3, 4, 5, 6, 7, 8, 9, 10, 11, 12, 13
EE, S
** 
** FIELD OUTPUT: F-Output-3
** 
*Element Output, elset=top-part-1.CompositeLayup-1-1, directions=YES
1, 2, 3, 4, 5, 6, 7, 8, 9, 10, 11, 12, 13, 14, 15, 16
EE, S
*Element Output, elset=top-part-1.CompositeLayup-1-1, directions=YES
17, 18, 19, 20, 21, 22, 23, 24, 25
EE, S
** 
** HISTORY OUTPUT: H-Output-1
** 
*Output, history, variable=PRESELECT
*End Step
