*Heading
** Job name: CPfm-r1-mesh2 Model name: CPfm-r1
** Generated by: Abaqus/CAE 6.12-2
*Preprint, echo=NO, model=NO, history=NO, contact=NO
**
** PARTS
**
*Part, name=bot-part
*Node
      1,          48.,   12.6999998,   1.44000006
      2,   52.7999992,   12.6999998,   1.44000006
      3,   52.7999992,   12.6999998,   1.20000005
      4,          48.,   12.6999998,   1.20000005
      5,   52.7999992,           0.,   1.44000006
      6,   52.7999992,           0.,   1.20000005
      7,          48.,           0.,   1.20000005
      8,          48.,           0.,   1.44000006
      9,          73.,   12.6999998,   1.44000006
     10,          73.,   12.6999998,   1.20000005
     11,          73.,           0.,   1.44000006
     12,          73.,           0.,   1.20000005
     13,         115.,   12.6999998,   1.44000006
     14,         115.,           0.,   1.44000006
     15,         115.,           0.,   1.20000005
     16,         115.,   12.6999998,   1.20000005
     17,           0.,           0.,   1.44000006
     18,          48.,           0.,   1.55999994
     19,           0.,           0.,   1.55999994
     20,          48.,   12.6999998,   1.55999994
** ... 3718 like lines cut
*Element, type=C3D8R
 1,   7, 125, 106,   4,   8, 124,  71,   1
 2, 125, 126, 105, 106, 124, 123,  72,  71
 3, 126, 127, 104, 105, 123, 122,  73,  72
 4, 127, 128, 103, 104, 122, 121,  74,  73
 5, 128, 129, 102, 103, 121, 120,  75,  74
 6, 129, 130, 101, 102, 120, 119,  76,  75
 7, 130, 131, 100, 101, 119, 118,  77,  76
 8, 131, 132,  99, 100, 118, 117,  78,  77
 9, 132, 133,  98,  99, 117, 116,  79,  78
10, 133, 134,  97,  98, 116, 115,  80,  79
11, 134, 135,  96,  97, 115, 114,  81,  80
12, 135, 136,  95,  96, 114, 113,  82,  81
13, 136, 137,  94,  95, 113, 112,  83,  82
14, 137, 138,  93,  94, 112, 111,  84,  83
15, 138, 139,  92,  93, 111, 110,  85,  84
16, 139, 140,  91,  92, 110, 109,  86,  85
17, 140, 141,  90,  91, 109, 108,  87,  86
18, 141, 142,  89,  90, 108, 107,  88,  87
19, 142,   6,   3,  89, 107,   5,   2,  88
 20,   6, 383, 302,   3,   5, 382, 143,   2
** ... 1576 like lines cut
*Nset, nset=_PickedSet37, internal, generate
    1,  3738,     1
*Elset, elset=_PickedSet37, internal, generate
    1,  1596,     1
*Elset, elset=_topsurf_S2, internal
 178, 179, 180, 181, 182, 183, 184, 185, 186, 187, 188, 189, 190, 191, 192, 193
 194, 195, 196, 197, 198, 199, 200, 201, 202, 203, 204, 205, 206, 207, 208, 209
 210, 211, 212, 213, 214, 215, 216, 217, 218, 219, 220, 221, 222, 223, 224, 225
 226, 227, 228, 229, 230, 231, 232, 233, 234, 235, 236, 237, 238, 239, 240, 241
 242, 243, 244, 245, 246, 247, 248, 249, 250, 251, 252, 253, 254, 255, 256, 257
 258, 259, 260, 261, 262, 263, 264, 265, 266, 356, 357, 358, 359, 360, 361, 362
 363, 364, 365, 366, 367, 368, 369, 370, 371, 372, 373, 374, 375, 376, 377, 378
 379, 380, 381, 382, 383, 384, 385, 386, 387, 388, 389, 390, 391, 392, 393, 394
 395, 396, 397, 398, 399, 400, 401, 402, 403, 404, 405, 406, 407, 408, 409, 410
 411, 412, 413, 414, 415, 416, 417, 418, 419, 420, 421, 422, 423, 424, 425, 426
 427, 428, 429, 430, 431, 432, 433, 434, 435, 436, 437, 438, 439, 440, 441, 442
 443, 444, 445, 446, 447, 448, 449, 450, 451, 452, 453, 454, 455, 456, 457, 458
 459, 460, 461, 462, 463, 464, 465, 466, 467, 468, 469, 470, 471, 472, 473, 474
 475, 476, 477, 478, 479, 480, 481, 482, 483, 484, 485, 486, 487, 488, 489, 490
 491, 492, 493, 494, 495, 496, 497, 498, 499, 500, 501, 502, 503, 504, 505, 506
 507, 508, 509, 510, 511, 512, 513, 514, 515, 516, 517, 518, 519, 520, 521, 522
 523, 524, 525, 526, 527, 528, 529, 530, 531, 532
*Surface, type=ELEMENT, name=topsurf
_topsurf_S2, S2
*Orientation, name=Ori-5
          1.,           0.,           0.,           0.,           1.,           0.
3, 0.
** Region: (CompositeLayup-5-1: Generated From Layup)
*Elset, elset=CompositeLayup-5-1
   1,   2,   3,   4,   5,   6,   7,   8,   9,  10,  11,  12,  13,  14,  15,  16
  17,  18,  19,  20,  21,  22,  23,  24,  25,  26,  27,  28,  29,  30,  31,  32
  33,  34,  35,  36,  37,  38,  39,  40,  41,  42,  43,  44,  45,  46,  47,  48
  49,  50,  51,  52,  53,  54,  55,  56,  57,  58,  59,  60,  61,  62,  63,  64
  65,  66,  67,  68,  69,  70,  71,  72,  73,  74,  75,  76,  77,  78,  79,  80
  81,  82,  83,  84,  85,  86,  87,  88,  89,  90,  91,  92,  93,  94,  95,  96
  97,  98,  99, 100, 101, 102, 103, 104, 105, 106, 107, 108, 109, 110, 111, 112
 113, 114, 115, 116, 117, 118, 119, 120, 121, 122, 123, 124, 125, 126, 127, 128
 129, 130, 131, 132, 133, 134, 135, 136, 137, 138, 139, 140, 141, 142, 143, 144
 145, 146, 147, 148, 149, 150, 151, 152, 153, 154, 155, 156, 157, 158, 159, 160
 161, 162, 163, 164, 165, 166, 167, 168, 169, 170, 171, 172, 173, 174, 175, 176
 177, 267, 268, 269, 270, 271, 272, 273, 274, 275, 276, 277, 278, 279, 280, 281
 282, 283, 284, 285, 286, 287, 288, 289, 290, 291, 292, 293, 294, 295, 296, 297
 298, 299, 300, 301, 302, 303, 304, 305, 306, 307, 308, 309, 310, 311, 312, 313
 314, 315, 316, 317, 318, 319, 320, 321, 322, 323, 324, 325, 326, 327, 328, 329
 330, 331, 332, 333, 334, 335, 336, 337, 338, 339, 340, 341, 342, 343, 344, 345
 346, 347, 348, 349, 350, 351, 352, 353, 354, 355
** Section: CompositeLayup-5-1
*Solid Section, elset=CompositeLayup-5-1, composite, orientation=Ori-5, stack direction=3, layup=CompositeLayup-5
1., 1, Material-1, 0., Ply-11
*Orientation, name=Ori-6
          1.,           0.,           0.,           0.,           1.,           0.
3, 0.
** Region: (CompositeLayup-6-1: Generated From Layup)
*Elset, elset=CompositeLayup-6-1
 178, 179, 180, 181, 182, 183, 184, 185, 186, 187, 188, 189, 190, 191, 192, 193
 194, 195, 196, 197, 198, 199, 200, 201, 202, 203, 204, 205, 206, 207, 208, 209
 210, 211, 212, 213, 214, 215, 216, 217, 218, 219, 220, 221, 222, 223, 224, 225
 226, 227, 228, 229, 230, 231, 232, 233, 234, 235, 236, 237, 238, 239, 240, 241
 242, 243, 244, 245, 246, 247, 248, 249, 250, 251, 252, 253, 254, 255, 256, 257
 258, 259, 260, 261, 262, 263, 264, 265, 266, 356, 357, 358, 359, 360, 361, 362
 363, 364, 365, 366, 367, 368, 369, 370, 371, 372, 373, 374, 375, 376, 377, 378
 379, 380, 381, 382, 383, 384, 385, 386, 387, 388, 389, 390, 391, 392, 393, 394
 395, 396, 397, 398, 399, 400, 401, 402, 403, 404, 405, 406, 407, 408, 409, 410
 411, 412, 413, 414, 415, 416, 417, 418, 419, 420, 421, 422, 423, 424, 425, 426
 427, 428, 429, 430, 431, 432, 433, 434, 435, 436, 437, 438, 439, 440, 441, 442
 443, 444, 445, 446, 447, 448, 449, 450, 451, 452, 453, 454, 455, 456, 457, 458
 459, 460, 461, 462, 463, 464, 465, 466, 467, 468, 469, 470, 471, 472, 473, 474
 475, 476, 477, 478, 479, 480, 481, 482, 483, 484, 485, 486, 487, 488, 489, 490
 491, 492, 493, 494, 495, 496, 497, 498, 499, 500, 501, 502, 503, 504, 505, 506
 507, 508, 509, 510, 511, 512, 513, 514, 515, 516, 517, 518, 519, 520, 521, 522
 523, 524, 525, 526, 527, 528, 529, 530, 531, 532
** Section: CompositeLayup-6-1
*Solid Section, elset=CompositeLayup-6-1, composite, orientation=Ori-6, stack direction=3, layup=CompositeLayup-6
1., 1, Material-1, 90., Ply-13
*Orientation, name=Ori-4
          1.,           0.,           0.,           0.,           1.,           0.
3, 0.
** Region: (CompositeLayup-4-1: Generated From Layup)
*Elset, elset=CompositeLayup-4-1
  533,  534,  535,  536,  537,  538,  539,  540,  541,  542,  543,  544,  545,  546,  547,  548
  549,  550,  551,  552,  553,  554,  555,  556,  557,  558,  559,  560,  561,  562,  563,  564
  565,  566,  567,  568,  569,  570,  571,  572,  573,  574,  575,  576,  577,  578,  579,  580
  581,  582,  583,  584,  585,  586,  587,  588,  589,  590,  591,  592,  593,  594,  595,  596
  597,  598,  599,  600,  601,  602,  603,  604,  605,  606,  607,  608,  609,  610,  611,  612
  613,  614,  615,  616,  617,  618,  619,  620,  621,  622,  623,  624,  625,  626,  627,  628
  629,  630,  631,  632,  799,  800,  801,  802,  803,  804,  805,  806,  807,  808,  809,  810
  811,  812,  813,  814,  815,  816,  817,  818,  819,  820,  821,  822,  823,  824,  825,  826
  827,  828,  829,  830,  831,  832,  833,  834,  835,  836,  837,  838,  839,  840,  841,  842
  843,  844,  845,  846,  847,  848,  849,  850,  851,  852,  853,  854,  855,  856,  857,  858
  859,  860,  861,  862,  863,  864,  865,  866,  867,  868,  869,  870,  871,  872,  873,  874
  875,  976,  977,  978,  979,  980,  981,  982,  983,  984,  985,  986,  987,  988,  989,  990
  991,  992,  993,  994,  995,  996,  997,  998,  999, 1000, 1001, 1002, 1003, 1004, 1005, 1006
 1007, 1008, 1009, 1010, 1011, 1012, 1013, 1014, 1015, 1016, 1017, 1018, 1019, 1020, 1021, 1022
 1023, 1024, 1025, 1026, 1027, 1028, 1029, 1030, 1031, 1032, 1033, 1034, 1035, 1036, 1037, 1038
 1039, 1040, 1041, 1042, 1043, 1044, 1045, 1046, 1047, 1048, 1049, 1050, 1051, 1052, 1053, 1054
 1055, 1056, 1057, 1058, 1059, 1060, 1061, 1062, 1063, 1064
** Section: CompositeLayup-4-1
*Solid Section, elset=CompositeLayup-4-1, composite, orientation=Ori-4, stack direction=3, layup=CompositeLayup-4
1., 1, Material-1, 90., Ply-5
*Orientation, name=Ori-3
          1.,           0.,           0.,           0.,           1.,           0.
3, 0.
** Region: (CompositeLayup-3-1: Generated From Layup)
*Elset, elset=CompositeLayup-3-1
  633,  634,  635,  636,  637,  638,  639,  640,  641,  642,  643,  644,  645,  646,  647,  648
  649,  650,  651,  652,  653,  654,  655,  656,  657,  658,  659,  660,  661,  662,  663,  664
  665,  666,  667,  668,  669,  670,  671,  672,  673,  674,  675,  676,  677,  678,  679,  680
  681,  682,  683,  684,  685,  686,  687,  688,  689,  690,  691,  692,  693,  694,  695,  696
  697,  698,  699,  700,  701,  702,  703,  704,  705,  706,  707,  708,  709,  710,  711,  712
  713,  714,  715,  716,  717,  718,  719,  720,  721,  722,  723,  724,  725,  726,  727,  728
  729,  730,  731,  732,  733,  734,  735,  736,  737,  738,  739,  740,  741,  742,  743,  744
  745,  746,  747,  748,  749,  750,  751,  752,  753,  754,  755,  756,  757,  758,  759,  760
  761,  762,  763,  764,  765,  766,  767,  768,  769,  770,  771,  772,  773,  774,  775,  776
  777,  778,  779,  780,  781,  782,  783,  784,  785,  786,  787,  788,  789,  790,  791,  792
  793,  794,  795,  796,  797,  798, 1250, 1251, 1252, 1253, 1254, 1255, 1256, 1257, 1258, 1259
 1260, 1261, 1262, 1263, 1264, 1265, 1266, 1267, 1268, 1269, 1270, 1271, 1272, 1273, 1274, 1275
 1276, 1277, 1278, 1279, 1280, 1281, 1282, 1283, 1284, 1285, 1286, 1287, 1288, 1289, 1290, 1291
 1292, 1293, 1294, 1295, 1296, 1297, 1298, 1299, 1300, 1301, 1302, 1303, 1304, 1305, 1306, 1307
 1308, 1309, 1310, 1311, 1312, 1313, 1314, 1315, 1316, 1317, 1318, 1319, 1320, 1321, 1322, 1323
 1324, 1325, 1326, 1327, 1328, 1329, 1330, 1412, 1413, 1414, 1415, 1416, 1417, 1418, 1419, 1420
 1421, 1422, 1423, 1424, 1425, 1426, 1427, 1428, 1429, 1430
** Section: CompositeLayup-3-1
*Solid Section, elset=CompositeLayup-3-1, composite, orientation=Ori-3, stack direction=3, layup=CompositeLayup-3
1., 1, Material-1, 0., Ply-3
*Orientation, name=Ori-2
          1.,           0.,           0.,           0.,           1.,           0.
3, 0.
** Region: (CompositeLayup-2-1: Generated From Layup)
*Elset, elset=CompositeLayup-2-1
  876,  877,  878,  879,  880,  881,  882,  883,  884,  885,  886,  887,  888,  889,  890,  891
  892,  893,  894,  895,  896,  897,  898,  899,  900,  901,  902,  903,  904,  905,  906,  907
  908,  909,  910,  911,  912,  913,  914,  915,  916,  917,  918,  919,  920,  921,  922,  923
  924,  925,  926,  927,  928,  929,  930,  931,  932,  933,  934,  935,  936,  937,  938,  939
  940,  941,  942,  943,  944,  945,  946,  947,  948,  949,  950,  951,  952,  953,  954,  955
  956,  957,  958,  959,  960,  961,  962,  963,  964,  965,  966,  967,  968,  969,  970,  971
  972,  973,  974,  975, 1142, 1143, 1144, 1145, 1146, 1147, 1148, 1149, 1150, 1151, 1152, 1153
 1154, 1155, 1156, 1157, 1158, 1159, 1160, 1161, 1162, 1163, 1164, 1165, 1166, 1167, 1168, 1169
 1170, 1171, 1172, 1173, 1174, 1175, 1176, 1177, 1178, 1179, 1180, 1181, 1182, 1183, 1184, 1185
 1186, 1187, 1188, 1189, 1190, 1191, 1192, 1193, 1194, 1195, 1196, 1197, 1198, 1199, 1200, 1201
 1202, 1203, 1204, 1205, 1206, 1207, 1208, 1209, 1210, 1211, 1212, 1213, 1214, 1215, 1216, 1217
 1218, 1219, 1220, 1221, 1222, 1223, 1224, 1225, 1226, 1227, 1228, 1229, 1230, 1520, 1521, 1522
 1523, 1524, 1525, 1526, 1527, 1528, 1529, 1530, 1531, 1532, 1533, 1534, 1535, 1536, 1537, 1538
 1539, 1540, 1541, 1542, 1543, 1544, 1545, 1546, 1547, 1548, 1549, 1550, 1551, 1552, 1553, 1554
 1555, 1556, 1557, 1558, 1559, 1560, 1561, 1562, 1563, 1564, 1565, 1566, 1567, 1568, 1569, 1570
 1571, 1572, 1573, 1574, 1575, 1576, 1577, 1578, 1579, 1580, 1581, 1582, 1583, 1584, 1585, 1586
 1587, 1588, 1589, 1590, 1591, 1592, 1593, 1594, 1595, 1596
** Section: CompositeLayup-2-1
*Solid Section, elset=CompositeLayup-2-1, composite, orientation=Ori-2, stack direction=3, layup=CompositeLayup-2
1., 1, Material-1, 90., Ply-2
*Orientation, name=Ori-1
          1.,           0.,           0.,           0.,           1.,           0.
3, 0.
** Region: (CompositeLayup-1-1: Generated From Layup)
*Elset, elset=CompositeLayup-1-1
 1065, 1066, 1067, 1068, 1069, 1070, 1071, 1072, 1073, 1074, 1075, 1076, 1077, 1078, 1079, 1080
 1081, 1082, 1083, 1084, 1085, 1086, 1087, 1088, 1089, 1090, 1091, 1092, 1093, 1094, 1095, 1096
 1097, 1098, 1099, 1100, 1101, 1102, 1103, 1104, 1105, 1106, 1107, 1108, 1109, 1110, 1111, 1112
 1113, 1114, 1115, 1116, 1117, 1118, 1119, 1120, 1121, 1122, 1123, 1124, 1125, 1126, 1127, 1128
 1129, 1130, 1131, 1132, 1133, 1134, 1135, 1136, 1137, 1138, 1139, 1140, 1141, 1231, 1232, 1233
 1234, 1235, 1236, 1237, 1238, 1239, 1240, 1241, 1242, 1243, 1244, 1245, 1246, 1247, 1248, 1249
 1331, 1332, 1333, 1334, 1335, 1336, 1337, 1338, 1339, 1340, 1341, 1342, 1343, 1344, 1345, 1346
 1347, 1348, 1349, 1350, 1351, 1352, 1353, 1354, 1355, 1356, 1357, 1358, 1359, 1360, 1361, 1362
 1363, 1364, 1365, 1366, 1367, 1368, 1369, 1370, 1371, 1372, 1373, 1374, 1375, 1376, 1377, 1378
 1379, 1380, 1381, 1382, 1383, 1384, 1385, 1386, 1387, 1388, 1389, 1390, 1391, 1392, 1393, 1394
 1395, 1396, 1397, 1398, 1399, 1400, 1401, 1402, 1403, 1404, 1405, 1406, 1407, 1408, 1409, 1410
 1411, 1431, 1432, 1433, 1434, 1435, 1436, 1437, 1438, 1439, 1440, 1441, 1442, 1443, 1444, 1445
 1446, 1447, 1448, 1449, 1450, 1451, 1452, 1453, 1454, 1455, 1456, 1457, 1458, 1459, 1460, 1461
 1462, 1463, 1464, 1465, 1466, 1467, 1468, 1469, 1470, 1471, 1472, 1473, 1474, 1475, 1476, 1477
 1478, 1479, 1480, 1481, 1482, 1483, 1484, 1485, 1486, 1487, 1488, 1489, 1490, 1491, 1492, 1493
 1494, 1495, 1496, 1497, 1498, 1499, 1500, 1501, 1502, 1503, 1504, 1505, 1506, 1507, 1508, 1509
 1510, 1511, 1512, 1513, 1514, 1515, 1516, 1517, 1518, 1519
** Section: CompositeLayup-1-1
*Solid Section, elset=CompositeLayup-1-1, composite, orientation=Ori-1, stack direction=3, layup=CompositeLayup-1
1., 1, Material-1, 0., Ply-1
*End Part
**  
*Part, name=fnm
*Node
      1,   52.7999992,   12.6999998,           0.
      2,   52.7999992,   12.6999998,  0.720000029
      3,          73.,   12.6999998,  0.720000029
      4,          73.,   12.6999998,           0.
      5,   52.7999992,           0.,  0.720000029
      6,          73.,           0.,  0.720000029
      7,          73.,           0.,           0.
      8,   52.7999992,           0.,           0.
      9,          48.,   12.6999998,           0.
     10,          48.,   12.6999998,  0.720000029
     11,          48.,           0.,           0.
     12,          48.,           0.,  0.720000029
     13,           0.,           0.,  0.720000029
     14,           0.,           0.,           0.
     15,           0.,   12.6999998,  0.720000029
     16,           0.,   12.6999998,           0.
     17,         115.,   12.6999998,  0.720000029
     18,         115.,           0.,  0.720000029
     19,         115.,           0.,           0.
     20,         115.,   12.6999998,           0.
** ... 1048 like lines cut
*Element, type=C3D8R
 1,   8, 261, 180,   1,   5, 260,  21,   2
 2, 261, 262, 179, 180, 260, 259,  22,  21
 3, 262, 263, 178, 179, 259, 258,  23,  22
 4, 263, 264, 177, 178, 258, 257,  24,  23
 5, 264, 265, 176, 177, 257, 256,  25,  24
 6, 265, 266, 175, 176, 256, 255,  26,  25
 7, 266, 267, 174, 175, 255, 254,  27,  26
 8, 267, 268, 173, 174, 254, 253,  28,  27
 9, 268, 269, 172, 173, 253, 252,  29,  28
10, 269, 270, 171, 172, 252, 251,  30,  29
11, 270, 271, 170, 171, 251, 250,  31,  30
12, 271, 272, 169, 170, 250, 249,  32,  31
13, 272, 273, 168, 169, 249, 248,  33,  32
14, 273, 274, 167, 168, 248, 247,  34,  33
15, 274, 275, 166, 167, 247, 246,  35,  34
16, 275, 276, 165, 166, 246, 245,  36,  35
17, 276, 277, 164, 165, 245, 244,  37,  36
18, 277, 278, 163, 164, 244, 243,  38,  37
19, 278, 279, 162, 163, 243, 242,  39,  38
20, 279, 280, 161, 162, 242, 241,  40,  39
** ... 246 like lines cut
*Elset, elset=predelam, generate
 101,  189,    1
*Nset, nset=right_tie, generate
 17,  20,   1
*Nset, nset=planestrain, generate
    1,  1068,     1
*Nset, nset=topsurf_tie
    2,    3,    5,    6,   10,   12,   13,   15,   17,   18,   21,   22,   23,   24,   25,   26
   27,   28,   29,   30,   31,   32,   33,   34,   35,   36,   37,   38,   39,   40,   41,   42
   43,   44,   45,   46,   47,   48,   49,   50,   51,   52,   53,   54,   55,   56,   57,   58
   59,   60,   61,   62,   63,   64,   65,   66,   67,   68,   69,   70,   71,   72,   73,   74
   75,   76,   77,   78,   79,   80,   81,   82,   83,   84,   85,   86,   87,   88,   89,   90
   91,   92,   93,   94,   95,   96,   97,   98,   99,  100,  181,  182,  183,  184,  185,  186
  187,  188,  189,  190,  191,  192,  193,  194,  195,  196,  197,  198,  199,  200,  201,  202
  203,  204,  205,  206,  207,  208,  209,  210,  211,  212,  213,  214,  215,  216,  217,  218
  219,  220,  221,  222,  223,  224,  225,  226,  227,  228,  229,  230,  231,  232,  233,  234
  235,  236,  237,  238,  239,  240,  241,  242,  243,  244,  245,  246,  247,  248,  249,  250
  251,  252,  253,  254,  255,  256,  257,  258,  259,  260,  359,  360,  361,  362,  363,  364
  365,  366,  367,  368,  369,  370,  371,  372,  373,  374,  375,  376,  395,  396,  397,  398
  399,  400,  401,  402,  403,  404,  405,  406,  407,  408,  409,  410,  411,  412,  413,  414
  415,  416,  417,  418,  419,  420,  421,  422,  423,  424,  425,  426,  427,  428,  429,  430
  431,  432,  433,  434,  435,  436,  437,  438,  439,  440,  441,  442,  443,  444,  445,  446
  447,  448,  449,  450,  451,  452,  453,  454,  455,  456,  457,  458,  459,  460,  461,  462
  463,  464,  465,  466,  467,  468,  469,  470,  471,  472,  473,  474,  475,  476,  477,  478
  479,  480,  481,  482,  483,  484,  485,  486,  487,  488,  489,  490,  491,  492,  493,  494
  495,  496,  497,  498,  499,  500,  589,  590,  591,  592,  593,  594,  595,  596,  597,  598
  599,  600,  601,  602,  603,  604,  605,  606,  607,  608,  609,  610,  611,  612,  613,  614
** ... 14 like lines cut
*Nset, nset=botsurf_tie
   1,   4,   7,   8,   9,  11,  14,  16,  19,  20, 101, 102, 103, 104, 105, 106
 107, 108, 109, 110, 111, 112, 113, 114, 115, 116, 117, 118, 119, 120, 121, 122
 123, 124, 125, 126, 127, 128, 129, 130, 131, 132, 133, 134, 135, 136, 137, 138
 139, 140, 141, 142, 143, 144, 145, 146, 147, 148, 149, 150, 151, 152, 153, 154
 155, 156, 157, 158, 159, 160, 161, 162, 163, 164, 165, 166, 167, 168, 169, 170
 171, 172, 173, 174, 175, 176, 177, 178, 179, 180, 261, 262, 263, 264, 265, 266
 267, 268, 269, 270, 271, 272, 273, 274, 275, 276, 277, 278, 279, 280, 281, 282
 283, 284, 285, 286, 287, 288, 289, 290, 291, 292, 293, 294, 295, 296, 297, 298
 299, 300, 301, 302, 303, 304, 305, 306, 307, 308, 309, 310, 311, 312, 313, 314
 315, 316, 317, 318, 319, 320, 321, 322, 323, 324, 325, 326, 327, 328, 329, 330
 331, 332, 333, 334, 335, 336, 337, 338, 339, 340, 341, 342, 343, 344, 345, 346
 347, 348, 349, 350, 351, 352, 353, 354, 355, 356, 357, 358, 377, 378, 379, 380
 381, 382, 383, 384, 385, 386, 387, 388, 389, 390, 391, 392, 393, 394, 501, 502
 503, 504, 505, 506, 507, 508, 509, 510, 511, 512, 513, 514, 515, 516, 517, 518
 519, 520, 521, 522, 523, 524, 525, 526, 527, 528, 529, 530, 531, 532, 533, 534
 535, 536, 537, 538, 539, 540, 541, 542, 543, 544, 545, 546, 547, 548, 549, 550
 551, 552, 553, 554, 555, 556, 557, 558, 559, 560, 561, 562, 563, 564, 565, 566
 567, 568, 569, 570, 571, 572, 573, 574, 575, 576, 577, 578, 579, 580, 581, 582
 583, 584, 585, 586, 587, 588, 677, 678, 679, 680, 681, 682, 683, 684, 685, 686
 687, 688, 689, 690, 691, 692, 693, 694, 695, 696, 697, 698, 699, 700, 701, 702
** ... 14 like lines cut
*End Part
**  
*Part, name=top-part
*Node
      1,         115.,   12.6999998,   2.51999998
      2,         115.,           0.,   2.51999998
      3,         115.,           0.,   1.08000004
      4,         115.,   12.6999998,   1.08000004
      5,          73.,   12.6999998,   2.51999998
      6,          73.,           0.,   2.51999998
      7,          73.,           0.,   1.08000004
      8,          73.,   12.6999998,   1.08000004
      9,           0.,   12.6999998,   2.51999998
     10,          48.,   12.6999998,   2.51999998
     11,          48.,   12.6999998,   1.08000004
     12,           0.,   12.6999998,   1.08000004
     13,          48.,           0.,   2.51999998
     14,          48.,           0.,   1.08000004
     15,           0.,           0.,   1.08000004
     16,           0.,           0.,   2.51999998
     17,   52.7999992,   12.6999998,   2.51999998
     18,   52.7999992,   12.6999998,           3.
     19,          73.,   12.6999998,           3.
     20,   52.7999992,           0.,   2.51999998
** ... 1796 like lines cut
*Element, type=C3D8R
 1,  41, 268,   3,   4, 192, 269,   2,   1
 2,  42, 267, 268,  41, 191, 270, 269, 192
 3,  43, 266, 267,  42, 190, 271, 270, 191
 4,  44, 265, 266,  43, 189, 272, 271, 190
 5,  45, 264, 265,  44, 188, 273, 272, 189
 6,  46, 263, 264,  45, 187, 274, 273, 188
 7,  47, 262, 263,  46, 186, 275, 274, 187
 8,  48, 261, 262,  47, 185, 276, 275, 186
 9,  49, 260, 261,  48, 184, 277, 276, 185
10,  50, 259, 260,  49, 183, 278, 277, 184
11,  51, 258, 259,  50, 182, 279, 278, 183
12,  52, 257, 258,  51, 181, 280, 279, 182
13,  53, 256, 257,  52, 180, 281, 280, 181
14,  54, 255, 256,  53, 179, 282, 281, 180
15,  55, 254, 255,  54, 178, 283, 282, 179
16,  56, 253, 254,  55, 177, 284, 283, 178
17,  57, 252, 253,  56, 176, 285, 284, 177
18,  58, 251, 252,  57, 175, 286, 285, 176
19,  59, 250, 251,  58, 174, 287, 286, 175
20,  60, 249, 250,  59, 173, 288, 287, 174
** ... 658 like lines cut
*Nset, nset=_PickedSet36, internal, generate
    1,  1816,     1
*Elset, elset=_PickedSet36, internal, generate
   1,  678,    1
*Elset, elset=_botsurf_S1, internal
 227, 228, 229, 230, 231, 232, 233, 234, 235, 236, 237, 238, 239, 240, 241, 242
 243, 244, 245, 246, 247, 248, 249, 250, 251, 252, 253, 254, 255, 256, 257, 258
 259, 260, 261, 262, 263, 264, 265, 266, 267, 268, 269, 270, 271, 272, 273, 274
 275, 276, 277, 278, 279, 280, 281, 282, 283, 284, 285, 286, 287, 288, 289, 290
 291, 292, 293, 294, 295, 296, 297, 298, 299, 300, 301, 302, 303, 304, 305, 306
 307, 308, 309, 310, 311, 312, 313, 314, 315, 316, 317, 318, 319, 320, 321, 322
 323, 324, 325, 326, 327, 328, 329, 330, 331, 332, 333, 334, 335, 336, 337, 338
 339, 340, 341, 342, 343, 344, 345, 346, 347, 348, 349, 350, 351, 352, 372, 373
 374, 375, 376, 377, 378, 379, 380, 381, 382, 383, 384, 385, 386, 387, 388, 389
 390, 391, 392, 393, 394, 395, 396, 397, 398, 399, 400, 401, 402, 403, 404, 405
 406, 407, 408, 409, 410, 411, 412, 413, 414, 415, 416, 417, 418, 419, 420, 421
 422, 423, 424, 425, 426, 427, 428, 429, 430, 431, 432, 433, 434, 435, 436, 437
 438, 439, 440, 441, 442, 443, 444, 445, 446, 447, 448, 449, 450, 451, 452, 534
 535, 536, 537, 538, 539, 540, 541, 542, 543, 544, 545, 546, 547, 548, 549, 550
 551, 552
*Surface, type=ELEMENT, name=botsurf
_botsurf_S1, S1
*Orientation, name=Ori-2
          1.,           0.,           0.,           0.,           1.,           0.
3, 0.
** Region: (CompositeLayup-2-1: Generated From Layup)
*Elset, elset=CompositeLayup-2-1
   1,   2,   3,   4,   5,   6,   7,   8,   9,  10,  11,  12,  13,  14,  15,  16
  17,  18,  19,  20,  21,  22,  23,  24,  25,  26,  27,  28,  29,  30,  31,  32
  33,  34,  35,  36,  37,  38,  39,  40,  41,  42,  43,  44,  45,  46,  47,  48
  49,  50,  51,  52,  53,  54,  55,  56,  57,  58,  59,  60,  61,  62,  63,  64
  65,  66,  67,  68,  69,  70,  71,  72,  73,  74,  75,  76,  77,  78,  79,  80
  81,  82,  83,  84,  85,  86,  87,  88,  89,  90,  91,  92,  93,  94,  95,  96
  97,  98,  99, 100, 101, 102, 103, 104, 105, 106, 107, 108, 109, 110, 111, 112
 113, 114, 115, 116, 117, 118, 119, 120, 121, 122, 123, 124, 125, 126, 353, 354
 355, 356, 357, 358, 359, 360, 361, 362, 363, 364, 365, 366, 367, 368, 369, 370
 371, 453, 454, 455, 456, 457, 458, 459, 460, 461, 462, 463, 464, 465, 466, 467
 468, 469, 470, 471, 472, 473, 474, 475, 476, 477, 478, 479, 480, 481, 482, 483
 484, 485, 486, 487, 488, 489, 490, 491, 492, 493, 494, 495, 496, 497, 498, 499
 500, 501, 502, 503, 504, 505, 506, 507, 508, 509, 510, 511, 512, 513, 514, 515
 516, 517, 518, 519, 520, 521, 522, 523, 524, 525, 526, 527, 528, 529, 530, 531
 532, 533
** Section: CompositeLayup-2-1
*Solid Section, elset=CompositeLayup-2-1, composite, orientation=Ori-2, stack direction=3, layup=CompositeLayup-2
1., 1, Material-1, 90., Ply-1
*Orientation, name=Ori-3
          1.,           0.,           0.,           0.,           1.,           0.
3, 0.
** Region: (CompositeLayup-3-1: Generated From Layup)
*Elset, elset=CompositeLayup-3-1
 127, 128, 129, 130, 131, 132, 133, 134, 135, 136, 137, 138, 139, 140, 141, 142
 143, 144, 145, 146, 147, 148, 149, 150, 151, 152, 153, 154, 155, 156, 157, 158
 159, 160, 161, 162, 163, 164, 165, 166, 167, 168, 169, 170, 171, 172, 173, 174
 175, 176, 177, 178, 179, 180, 181, 182, 183, 184, 185, 186, 187, 188, 189, 190
 191, 192, 193, 194, 195, 196, 197, 198, 199, 200, 201, 202, 203, 204, 205, 206
 207, 208, 209, 210, 211, 212, 213, 214, 215, 216, 217, 218, 219, 220, 221, 222
 223, 224, 225, 226, 553, 554, 555, 556, 557, 558, 559, 560, 561, 562, 563, 564
 565, 566, 567, 568, 569, 570, 571, 572, 573, 574, 575, 576, 577, 578, 579, 580
 581, 582, 583, 584, 585, 586, 587, 588, 589, 590, 591, 592, 593, 594, 595, 596
 597, 598, 599, 600, 601, 602, 603, 604, 605, 606, 607, 608, 609, 610, 611, 612
 613, 614, 615, 616, 617, 618, 619, 620, 621, 622, 623, 624, 625, 626, 627, 628
 629, 630, 631, 632, 633, 634, 635, 636, 637, 638, 639, 640, 641, 642, 643, 644
 645, 646, 647, 648, 649, 650, 651, 652, 653, 654, 655, 656, 657, 658, 659, 660
 661, 662, 663, 664, 665, 666, 667, 668, 669, 670, 671, 672, 673, 674, 675, 676
 677, 678
** Section: CompositeLayup-3-1
*Solid Section, elset=CompositeLayup-3-1, composite, orientation=Ori-3, stack direction=3, layup=CompositeLayup-3
1., 1, Material-1, 0., Ply-1
*Orientation, name=Ori-1
          1.,           0.,           0.,           0.,           1.,           0.
3, 0.
** Region: (CompositeLayup-1-1: Generated From Layup)
*Elset, elset=CompositeLayup-1-1
 227, 228, 229, 230, 231, 232, 233, 234, 235, 236, 237, 238, 239, 240, 241, 242
 243, 244, 245, 246, 247, 248, 249, 250, 251, 252, 253, 254, 255, 256, 257, 258
 259, 260, 261, 262, 263, 264, 265, 266, 267, 268, 269, 270, 271, 272, 273, 274
 275, 276, 277, 278, 279, 280, 281, 282, 283, 284, 285, 286, 287, 288, 289, 290
 291, 292, 293, 294, 295, 296, 297, 298, 299, 300, 301, 302, 303, 304, 305, 306
 307, 308, 309, 310, 311, 312, 313, 314, 315, 316, 317, 318, 319, 320, 321, 322
 323, 324, 325, 326, 327, 328, 329, 330, 331, 332, 333, 334, 335, 336, 337, 338
 339, 340, 341, 342, 343, 344, 345, 346, 347, 348, 349, 350, 351, 352, 372, 373
 374, 375, 376, 377, 378, 379, 380, 381, 382, 383, 384, 385, 386, 387, 388, 389
 390, 391, 392, 393, 394, 395, 396, 397, 398, 399, 400, 401, 402, 403, 404, 405
 406, 407, 408, 409, 410, 411, 412, 413, 414, 415, 416, 417, 418, 419, 420, 421
 422, 423, 424, 425, 426, 427, 428, 429, 430, 431, 432, 433, 434, 435, 436, 437
 438, 439, 440, 441, 442, 443, 444, 445, 446, 447, 448, 449, 450, 451, 452, 534
 535, 536, 537, 538, 539, 540, 541, 542, 543, 544, 545, 546, 547, 548, 549, 550
 551, 552
** Section: CompositeLayup-1-1
*Solid Section, elset=CompositeLayup-1-1, composite, orientation=Ori-1, stack direction=3, layup=CompositeLayup-1
1., 1, Material-1, 0., Ply-1
*End Part
**  
**
** ASSEMBLY
**
*Assembly, name=Assembly
**  
*Instance, name=bot-part-1, part=bot-part
*End Instance
**  
*Instance, name=fnm-1, part=fnm
          0.,           0.,         1.56
*End Instance
**  
*Instance, name=top-part-1, part=top-part
          0.,           0.,         2.28
*End Instance
**  
*Nset, nset=load, instance=top-part-1
 18, 21
*Elset, elset=load, instance=top-part-1
 207, 226
*Nset, nset=fixright, instance=bot-part-1
 13, 14, 15, 16, 27, 28, 43, 44, 45, 46, 57, 58, 59, 60
*Nset, nset=fixright, instance=top-part-1
  1,  2,  3,  4, 27, 28, 39, 40
*Elset, elset=fixright, instance=bot-part-1
  177,  432,  722,  799, 1065, 1520
*Elset, elset=fixright, instance=top-part-1
   1, 303, 602
*Nset, nset=fixleft, instance=bot-part-1
 17, 19, 21, 22, 23, 24, 37, 39, 41, 42, 63, 64, 69, 70
*Elset, elset=fixleft, instance=bot-part-1
  178,  355,  633,  976, 1142, 1431
*Nset, nset=planestrain, instance=bot-part-1, generate
    1,  3738,     1
*Nset, nset=planestrain, instance=top-part-1, generate
    1,  1816,     1
*Elset, elset=planestrain, instance=bot-part-1, generate
    1,  1596,     1
*Elset, elset=planestrain, instance=top-part-1, generate
   1,  678,    1
*Surface, type=NODE, name=fnm-1_botsurf_tie_CNS_, internal
fnm-1.botsurf_tie, 1.
*Surface, type=NODE, name=fnm-1_topsurf_tie_CNS_, internal
fnm-1.topsurf_tie, 1.
** Constraint: Constraint-1
*Tie, name=Constraint-1, adjust=yes
fnm-1_botsurf_tie_CNS_, bot-part-1.topsurf
** Constraint: Constraint-2
*Tie, name=Constraint-2, adjust=yes
fnm-1_topsurf_tie_CNS_, top-part-1.botsurf
*End Assembly
** 
** MATERIALS
** 
*Material, name=Material-1
*Elastic, type=ENGINEERING CONSTANTS
161000.,11400.,11400.,  0.32,  0.32, 0.436, 5170., 5170.
 3980.,
** 
** BOUNDARY CONDITIONS
** 
** Name: fixleft Type: Displacement/Rotation
*Boundary
fixleft, 1, 1
fixleft, 2, 2
fixleft, 3, 3
** Name: fixload Type: Displacement/Rotation
*Boundary
load, 1, 1
load, 2, 2
** Name: fixright Type: Displacement/Rotation
*Boundary
fixright, 1, 1
fixright, 2, 2
fixright, 3, 3
** Name: fixright-fnm Type: Displacement/Rotation
*Boundary
fnm-1.right_tie, 1, 1
fnm-1.right_tie, 2, 2
fnm-1.right_tie, 3, 3
** Name: planestrain Type: Displacement/Rotation
*Boundary
planestrain, 2, 2
** Name: planestrain-fnm Type: Displacement/Rotation
*Boundary
fnm-1.planestrain, 2, 2
** ----------------------------------------------------------------
** 
** STEP: loading
** 
*Step, name=loading, inc=10000
*Static
0.001, 3., 0.0001, 0.001
** 
** BOUNDARY CONDITIONS
** 
** Name: load Type: Velocity/Angular velocity
*Boundary, type=VELOCITY
load, 3, 3, 1.
** 
** OUTPUT REQUESTS
** 
*Restart, write, frequency=0
** 
** FIELD OUTPUT: F-Output-1
** 
*Output, field
*Node Output
RF, U
*Element Output, directions=YES
EE, S
** 
** FIELD OUTPUT: F-Output-2
** 
*Element Output, elset=bot-part-1.CompositeLayup-1-1, directions=YES
1
EE, S
** 
** FIELD OUTPUT: F-Output-3
** 
*Element Output, elset=top-part-1.CompositeLayup-1-1, directions=YES
1
EE, S
** 
** HISTORY OUTPUT: H-Output-1
** 
*Output, history, variable=PRESELECT
*End Step
