*Heading
** Job name: Pnc60cltfbcd-r1 Model name: Pnc60cltfbcd-r1
** Generated by: Abaqus/CAE 6.12-2
*Preprint, echo=NO, model=NO, history=NO, contact=NO
**
** PARTS
**
*Part, name=bot-part
*Node
      1,   114.300003,           0.,           0.
      2,   114.300003,           0.,    3.4289999
      3,          83.,           0.,    3.4289999
      4,          83.,           0.,           0.
      5,   114.300003,   12.6999998,    3.4289999
      6,          83.,   12.6999998,    3.4289999
      7,          83.,   12.6999998,           0.
      8,   114.300003,   12.6999998,           0.
      9,           0.,   12.6999998,    3.4289999
     10,           0.,   12.6999998,           0.
     11,  -12.6999998,   12.6999998,           0.
     12,  -12.6999998,   12.6999998,    3.4289999
     13,           0.,           0.,           0.
     14,  -12.6999998,           0.,           0.
     15,  -12.6999998,           0.,    3.4289999
     16,           0.,           0.,    3.4289999
     17,   58.2999992,           0.,    3.4289999
     18,   58.2999992,           0.,           0.
     19,   58.2999992,   12.6999998,           0.
     20,   58.2999992,   12.6999998,    3.4289999
** ... 14540 like lines cut
*Element, type=C3D8R
   1,  324, 1457,  152,    1,  349, 2945,   29,    2
   2, 1457, 1458,  151,  152, 2945, 2946,   30,   29
   3, 1458, 1459,  150,  151, 2946, 2947,   31,   30
   4, 1459, 1460,  149,  150, 2947, 2948,   32,   31
   5, 1460, 1461,  148,  149, 2948, 2949,   33,   32
   6, 1461, 1462,  147,  148, 2949, 2950,   34,   33
   7, 1462, 1463,  146,  147, 2950, 2951,   35,   34
   8, 1463, 1464,  145,  146, 2951, 2952,   36,   35
   9, 1464, 1465,  144,  145, 2952, 2953,   37,   36
  10, 1465, 1466,  143,  144, 2953, 2954,   38,   37
  11, 1466, 1467,  142,  143, 2954, 2955,   39,   38
  12, 1467, 1468,  141,  142, 2955, 2956,   40,   39
  13, 1468, 1469,  140,  141, 2956, 2957,   41,   40
  14, 1469, 1470,  139,  140, 2957, 2958,   42,   41
  15, 1470, 1471,  138,  139, 2958, 2959,   43,   42
  16, 1471, 1472,  137,  138, 2959, 2960,   44,   43
  17, 1472, 1473,  136,  137, 2960, 2961,   45,   44
  18, 1473, 1474,  135,  136, 2961, 2962,   46,   45
  19, 1474, 1475,  134,  135, 2962, 2963,   47,   46
  20, 1475, 1476,  133,  134, 2963, 2964,   48,   47
** ... 6955 like lines cut
*Nset, nset=_PickedSet179, internal, generate
     1,  14560,      1
*Elset, elset=_PickedSet179, internal, generate
    1,  6975,     1
*Elset, elset=_topsurf_S2, internal
    1,    2,    3,    4,    5,    6,    7,    8,    9,   10,   11,   12,   13,   14,   15,   16
   17,   18,   19,   20,   21,   22,   23,   24,   25,   26,   27,   28,   29,   30,   31,   32
   33,   34,   35,   36,   37,   38,   39,   40,   41,   42,   43,   44,   45,   46,   47,   48
   49,   50,   51,   52,   53,   54,   55,   56,   57,   58,   59,   60,   61,   62,   63,   64
   65,   66,   67,   68,   69,   70,   71,   72,   73,   74,   75,   76,   77,   78,   79,   80
   81,   82,   83,   84,   85,   86,   87,   88,   89,   90,   91,   92,   93,   94,   95,   96
   97,   98,   99,  100,  101,  102,  103,  104,  105,  106,  107,  108,  109,  110,  111,  112
  113,  114,  115,  116,  117,  118,  119,  120,  121,  122,  123,  124,  125,  126,  127,  128
  129,  130,  131,  132,  133,  134,  135,  136,  137,  138,  139,  140,  141,  142,  143,  144
  145,  146,  147,  148,  149,  150,  151,  152,  153,  154,  155,  156,  157,  158,  159,  160
  161,  162,  163,  164,  165,  166,  167,  168,  169,  170,  171,  172,  173,  174,  175,  176
  177,  178,  179,  180,  181,  182,  183,  184,  185,  186,  187,  188,  189,  190,  191,  192
  193,  194,  195,  196,  197,  198,  199,  200,  201,  202,  203,  204,  205,  206,  207,  208
  209,  210,  211,  212,  213,  214,  215,  216,  217,  218,  219,  220,  221,  222,  223,  224
  225,  226,  227,  228,  229,  230,  231,  232,  233,  234,  235,  236,  237,  238,  239,  240
  241,  242,  243,  244,  245,  246,  247,  248,  249,  250,  251,  252,  253,  254,  255,  256
  257,  258,  259,  260,  261,  262,  263,  264,  265,  266,  267,  268,  269,  270,  271,  272
  273,  274,  275,  276,  277,  278,  279,  280,  281,  282,  283,  284,  285,  286,  287,  288
  289,  290,  291,  292,  293,  294,  295,  296,  297,  298,  299,  300,  301,  302,  303,  304
  305,  306,  307,  308,  309,  310,  311,  312,  313,  314,  315,  316,  317,  318,  319,  320
** ... 377 like lines cut
*Surface, type=ELEMENT, name=topsurf
_topsurf_S2, S2
*Orientation, name=Ori-1
          1.,           0.,           0.,           0.,           1.,           0.
3, 0.
** Region: (clt-1: Generated From Layup)
*Elset, elset=clt-1, generate
    1,  6975,     1
** Section: clt-1
*Solid Section, elset=clt-1, composite, orientation=Ori-1, stack direction=3, layup=clt
0.037037, 1, Material-1, 60., Ply-1
0.037037, 1, Material-1, 0., Ply-2
0.037037, 1, Material-1, 60., Ply-3
0.037037, 1, Material-1, 60., Ply-4
0.037037, 1, Material-1, 60., Ply-5
0.037037, 1, Material-1, -60., Ply-6
0.037037, 1, Material-1, -60., Ply-7
0.037037, 1, Material-1, -60., Ply-8
0.037037, 1, Material-1, -60., Ply-9
0.037037, 1, Material-1, -30., Ply-10
0.037037, 1, Material-1, -60., Ply-11
0.037037, 1, Material-1, -30., Ply-12
0.037037, 1, Material-1, 90., Ply-13
0.037037, 1, Material-1, -30., Ply-14
0.037037, 1, Material-1, 30., Ply-15
0.037037, 1, Material-1, 90., Ply-16
0.037037, 1, Material-1, 30., Ply-17
0.037037, 1, Material-1, 60., Ply-18
0.037037, 1, Material-1, 30., Ply-19
0.037037, 1, Material-1, 60., Ply-20
** ... 7 like lines cut
*End Part
**  
*Part, name=clamp-bl
*Node
      1,           0.,           0.,           5.
      2,           0.,   12.6999998,           5.
      3,           0.,   12.6999998,           0.
      4,           0.,           0.,           0.
      5,   12.6999998,   12.6999998,           5.
      6,   12.6999998,   12.6999998,           0.
      7,   12.6999998,           0.,           5.
      8,   12.6999998,           0.,           0.
*Element, type=R3D4
1, 1, 2, 3, 4
2, 2, 5, 6, 3
3, 5, 7, 8, 6
4, 7, 1, 4, 8
5, 2, 1, 7, 5
6, 8, 4, 3, 6
*Node
      9,           0.,           0.,           5.
*Nset, nset=clamp-bl-RefPt_, internal
9, 
*Elset, elset=_topsurf_SPOS, internal
 5,
*Surface, type=ELEMENT, name=topsurf
_topsurf_SPOS, SPOS
*Elset, elset=_botsurf_SPOS, internal
 6,
*Surface, type=ELEMENT, name=botsurf
_botsurf_SPOS, SPOS
*Elset, elset=clamp-bl, generate
 1,  6,  1
*End Part
**  
*Part, name=clamp-br
*Node
      1,           0.,           0.,           5.
      2,           0.,   12.6999998,           5.
      3,           0.,   12.6999998,           0.
      4,           0.,           0.,           0.
      5,   12.6999998,   12.6999998,           5.
      6,   12.6999998,   12.6999998,           0.
      7,   12.6999998,           0.,           5.
      8,   12.6999998,           0.,           0.
*Element, type=R3D4
1, 1, 2, 3, 4
2, 2, 5, 6, 3
3, 5, 7, 8, 6
4, 7, 1, 4, 8
5, 2, 1, 7, 5
6, 8, 4, 3, 6
*Node
      9,           0.,           0.,           5.
*Nset, nset=clamp-br-RefPt_, internal
9, 
*Elset, elset=_topsurf_SPOS, internal
 5,
*Surface, type=ELEMENT, name=topsurf
_topsurf_SPOS, SPOS
*Elset, elset=_botsurf_SPOS, internal
 6,
*Surface, type=ELEMENT, name=botsurf
_botsurf_SPOS, SPOS
*Elset, elset=clamp-br, generate
 1,  6,  1
*End Part
**  
*Part, name=clamp-tl
*Node
      1,           0.,           0.,           5.
      2,           0.,   12.6999998,           5.
      3,           0.,   12.6999998,           0.
      4,           0.,           0.,           0.
      5,   12.6999998,   12.6999998,           5.
      6,   12.6999998,   12.6999998,           0.
      7,   12.6999998,           0.,           5.
      8,   12.6999998,           0.,           0.
*Element, type=R3D4
1, 1, 2, 3, 4
2, 2, 5, 6, 3
3, 5, 7, 8, 6
4, 7, 1, 4, 8
5, 2, 1, 7, 5
6, 8, 4, 3, 6
*Node
      9,           0.,           0.,           5.
*Nset, nset=clamp-tl-RefPt_, internal
9, 
*Elset, elset=_topsurf_SPOS, internal
 5,
*Surface, type=ELEMENT, name=topsurf
_topsurf_SPOS, SPOS
*Elset, elset=_botsurf_SPOS, internal
 6,
*Surface, type=ELEMENT, name=botsurf
_botsurf_SPOS, SPOS
*Elset, elset=clamp-tl, generate
 1,  6,  1
*End Part
**  
*Part, name=clamp-tr
*Node
      1,           0.,           0.,           5.
      2,           0.,   12.6999998,           5.
      3,           0.,   12.6999998,           0.
      4,           0.,           0.,           0.
      5,   12.6999998,   12.6999998,           5.
      6,   12.6999998,   12.6999998,           0.
      7,   12.6999998,           0.,           5.
      8,   12.6999998,           0.,           0.
*Element, type=R3D4
1, 1, 2, 3, 4
2, 2, 5, 6, 3
3, 5, 7, 8, 6
4, 7, 1, 4, 8
5, 2, 1, 7, 5
6, 8, 4, 3, 6
*Node
      9,           0.,           0.,           5.
*Nset, nset=clamp-tr-RefPt_, internal
9, 
*Elset, elset=_topsurf_SPOS, internal
 5,
*Surface, type=ELEMENT, name=topsurf
_topsurf_SPOS, SPOS
*Elset, elset=_botsurf_SPOS, internal
 6,
*Surface, type=ELEMENT, name=botsurf
_botsurf_SPOS, SPOS
*Elset, elset=clamp-tr, generate
 1,  6,  1
*End Part
**  
*Part, name=fnm
*Node
      1,   114.300003,   12.6999998,  0.762000024
      2,   114.300003,   12.6999998,           0.
      3,          83.,   12.6999998,           0.
      4,          83.,   12.6999998,  0.762000024
      5,   114.300003,           0.,           0.
      6,          83.,           0.,           0.
      7,          83.,           0.,  0.762000024
      8,   114.300003,           0.,  0.762000024
      9,         127.,   12.6999998,  0.762000024
     10,         127.,   12.6999998,           0.
     11,         127.,           0.,  0.762000024
     12,         127.,           0.,           0.
     13,   58.2999992,           0.,           0.
     14,   58.2999992,           0.,  0.762000024
     15,          53.,           0.,  0.762000024
     16,          53.,           0.,           0.
     17,   58.2999992,   12.6999998,  0.762000024
     18,          53.,   12.6999998,  0.762000024
     19,          53.,   12.6999998,           0.
     20,   58.2999992,   12.6999998,           0.
** ... 10276 like lines cut
*Element, type=C3D8R
   1, 2569,  345,    2,   25, 1081,  320,    1,  148
   2, 2570, 2569,   25,   26, 1082, 1081,  148,  147
   3, 2571, 2570,   26,   27, 1083, 1082,  147,  146
   4, 2572, 2571,   27,   28, 1084, 1083,  146,  145
   5, 2573, 2572,   28,   29, 1085, 1084,  145,  144
   6, 2574, 2573,   29,   30, 1086, 1085,  144,  143
   7, 2575, 2574,   30,   31, 1087, 1086,  143,  142
   8, 2576, 2575,   31,   32, 1088, 1087,  142,  141
   9, 2577, 2576,   32,   33, 1089, 1088,  141,  140
  10, 2578, 2577,   33,   34, 1090, 1089,  140,  139
  11, 2579, 2578,   34,   35, 1091, 1090,  139,  138
  12, 2580, 2579,   35,   36, 1092, 1091,  138,  137
  13, 2581, 2580,   36,   37, 1093, 1092,  137,  136
  14, 2582, 2581,   37,   38, 1094, 1093,  136,  135
  15, 2583, 2582,   38,   39, 1095, 1094,  135,  134
  16, 2584, 2583,   39,   40, 1096, 1095,  134,  133
  17, 2585, 2584,   40,   41, 1097, 1096,  133,  132
  18, 2586, 2585,   41,   42, 1098, 1097,  132,  131
  19, 2587, 2586,   42,   43, 1099, 1098,  131,  130
  20, 2588, 2587,   43,   44, 1100, 1099,  130,  129
** ... 4905 like lines cut
*Elset, elset=predelam, generate
 3701,  4925,     1
*Nset, nset=topsurf_tie
     1,     4,     7,     8,     9,    11,    14,    15,    17,    18,    21,    23,    87,    88,    89,    90
    91,    92,    93,    94,    95,    96,    97,    98,    99,   100,   101,   102,   103,   104,   105,   106
   107,   108,   109,   110,   111,   112,   113,   114,   115,   116,   117,   118,   119,   120,   121,   122
   123,   124,   125,   126,   127,   128,   129,   130,   131,   132,   133,   134,   135,   136,   137,   138
   139,   140,   141,   142,   143,   144,   145,   146,   147,   148,   211,   212,   213,   214,   215,   216
   217,   218,   219,   220,   221,   222,   223,   224,   225,   226,   227,   228,   229,   230,   231,   232
   233,   234,   235,   236,   237,   238,   239,   240,   241,   242,   243,   244,   245,   246,   247,   248
   249,   250,   251,   252,   253,   254,   255,   256,   257,   258,   259,   260,   261,   262,   263,   264
   265,   266,   267,   268,   269,   270,   271,   272,   273,   274,   275,   276,   277,   278,   279,   280
   281,   282,   283,   284,   285,   286,   287,   288,   289,   290,   291,   292,   293,   294,   295,   296
   297,   298,   299,   300,   301,   302,   303,   304,   305,   306,   307,   308,   309,   310,   311,   312
   313,   314,   315,   316,   317,   318,   319,   320,   369,   370,   371,   372,   373,   374,   375,   376
   377,   378,   379,   380,   381,   382,   383,   384,   385,   386,   387,   388,   389,   390,   391,   392
   417,   418,   419,   420,   421,   422,   423,   424,   425,   426,   427,   428,   429,   430,   431,   432
   433,   434,   435,   436,   437,   438,   439,   440,   489,   490,   491,   492,   493,   494,   495,   496
   497,   498,   499,   500,   501,   502,   503,   504,   505,   506,   507,   508,   509,   510,   511,   512
   513,   514,   515,   516,   517,   518,   519,   520,   521,   522,   533,   534,   535,   536,   537,   538
   539,   540,   541,   542,   601,   602,   603,   604,   605,   606,   607,   608,   609,   610,   611,   612
   613,   614,   615,   616,   617,   618,   619,   620,   621,   622,   623,   624,   625,   626,   627,   628
   629,   630,   631,   632,   633,   634,   635,   636,   637,   638,   639,   640,   641,   642,   643,   644
** ... 302 like lines cut
*Nset, nset=botsurf_tie
    2,    3,    5,    6,   10,   12,   13,   16,   19,   20,   22,   24,   25,   26,   27,   28
   29,   30,   31,   32,   33,   34,   35,   36,   37,   38,   39,   40,   41,   42,   43,   44
   45,   46,   47,   48,   49,   50,   51,   52,   53,   54,   55,   56,   57,   58,   59,   60
   61,   62,   63,   64,   65,   66,   67,   68,   69,   70,   71,   72,   73,   74,   75,   76
   77,   78,   79,   80,   81,   82,   83,   84,   85,   86,  149,  150,  151,  152,  153,  154
  155,  156,  157,  158,  159,  160,  161,  162,  163,  164,  165,  166,  167,  168,  169,  170
  171,  172,  173,  174,  175,  176,  177,  178,  179,  180,  181,  182,  183,  184,  185,  186
  187,  188,  189,  190,  191,  192,  193,  194,  195,  196,  197,  198,  199,  200,  201,  202
  203,  204,  205,  206,  207,  208,  209,  210,  321,  322,  323,  324,  325,  326,  327,  328
  329,  330,  331,  332,  333,  334,  335,  336,  337,  338,  339,  340,  341,  342,  343,  344
  345,  346,  347,  348,  349,  350,  351,  352,  353,  354,  355,  356,  357,  358,  359,  360
  361,  362,  363,  364,  365,  366,  367,  368,  393,  394,  395,  396,  397,  398,  399,  400
  401,  402,  403,  404,  405,  406,  407,  408,  409,  410,  411,  412,  413,  414,  415,  416
  441,  442,  443,  444,  445,  446,  447,  448,  449,  450,  451,  452,  453,  454,  455,  456
  457,  458,  459,  460,  461,  462,  463,  464,  465,  466,  467,  468,  469,  470,  471,  472
  473,  474,  475,  476,  477,  478,  479,  480,  481,  482,  483,  484,  485,  486,  487,  488
  523,  524,  525,  526,  527,  528,  529,  530,  531,  532,  543,  544,  545,  546,  547,  548
  549,  550,  551,  552,  553,  554,  555,  556,  557,  558,  559,  560,  561,  562,  563,  564
  565,  566,  567,  568,  569,  570,  571,  572,  573,  574,  575,  576,  577,  578,  579,  580
  581,  582,  583,  584,  585,  586,  587,  588,  589,  590,  591,  592,  593,  594,  595,  596
** ... 302 like lines cut
*End Part
**  
*Part, name=top-part
*Node
      1,   114.300003,   12.6999998,        2.921
      2,   114.300003,   12.6999998,           0.
      3,          83.,   12.6999998,           0.
      4,          83.,   12.6999998,        2.921
      5,   114.300003,           0.,           0.
      6,          83.,           0.,           0.
      7,          83.,           0.,        2.921
      8,   114.300003,           0.,        2.921
      9,         127.,   12.6999998,        2.921
     10,         127.,   12.6999998,           0.
     11,         127.,           0.,        2.921
     12,         127.,           0.,           0.
     13,   58.2999992,           0.,           0.
     14,   58.2999992,           0.,        2.921
     15,          53.,           0.,        2.921
     16,          53.,           0.,           0.
     17,   58.2999992,   12.6999998,        2.921
     18,          53.,   12.6999998,        2.921
     19,          53.,   12.6999998,           0.
     20,   58.2999992,   12.6999998,           0.
** ... 10276 like lines cut
*Element, type=C3D8R
   1, 2569,  345,    2,   25, 1081,  320,    1,  148
   2, 2570, 2569,   25,   26, 1082, 1081,  148,  147
   3, 2571, 2570,   26,   27, 1083, 1082,  147,  146
   4, 2572, 2571,   27,   28, 1084, 1083,  146,  145
   5, 2573, 2572,   28,   29, 1085, 1084,  145,  144
   6, 2574, 2573,   29,   30, 1086, 1085,  144,  143
   7, 2575, 2574,   30,   31, 1087, 1086,  143,  142
   8, 2576, 2575,   31,   32, 1088, 1087,  142,  141
   9, 2577, 2576,   32,   33, 1089, 1088,  141,  140
  10, 2578, 2577,   33,   34, 1090, 1089,  140,  139
  11, 2579, 2578,   34,   35, 1091, 1090,  139,  138
  12, 2580, 2579,   35,   36, 1092, 1091,  138,  137
  13, 2581, 2580,   36,   37, 1093, 1092,  137,  136
  14, 2582, 2581,   37,   38, 1094, 1093,  136,  135
  15, 2583, 2582,   38,   39, 1095, 1094,  135,  134
  16, 2584, 2583,   39,   40, 1096, 1095,  134,  133
  17, 2585, 2584,   40,   41, 1097, 1096,  133,  132
  18, 2586, 2585,   41,   42, 1098, 1097,  132,  131
  19, 2587, 2586,   42,   43, 1099, 1098,  131,  130
  20, 2588, 2587,   43,   44, 1100, 1099,  130,  129
** ... 4905 like lines cut
*Nset, nset=_PickedSet154, internal, generate
     1,  10296,      1
*Elset, elset=_PickedSet154, internal, generate
    1,  4925,     1
*Elset, elset=_botsurf_S1, internal, generate
    1,  4925,     1
*Surface, type=ELEMENT, name=botsurf
_botsurf_S1, S1
*Orientation, name=Ori-1
          1.,           0.,           0.,           0.,           1.,           0.
3, 0.
** Region: (clt-1: Generated From Layup)
*Elset, elset=clt-1, generate
    1,  4925,     1
** Section: clt-1
*Solid Section, elset=clt-1, composite, orientation=Ori-1, stack direction=3, layup=clt
0.0434783, 1, Material-1, -60., Ply-1
0.0434783, 1, Material-1, -60., Ply-2
0.0434783, 1, Material-1, -60., Ply-3
0.0434783, 1, Material-1, -60., Ply-4
0.0434783, 1, Material-1, -30., Ply-5
0.0434783, 1, Material-1, -60., Ply-6
0.0434783, 1, Material-1, -30., Ply-7
0.0434783, 1, Material-1, 90., Ply-8
0.0434783, 1, Material-1, -30., Ply-9
0.0434783, 1, Material-1, 30., Ply-10
0.0434783, 1, Material-1, 90., Ply-11
0.0434783, 1, Material-1, 30., Ply-12
0.0434783, 1, Material-1, 60., Ply-13
0.0434783, 1, Material-1, 30., Ply-14
0.0434783, 1, Material-1, 60., Ply-15
0.0434783, 1, Material-1, 60., Ply-16
0.0434783, 1, Material-1, 60., Ply-17
0.0434783, 1, Material-1, 60., Ply-18
0.0434783, 1, Material-1, 0., Ply-19
0.0434783, 1, Material-1, -60., Ply-20
0.0434783, 1, Material-1, -60., Ply-21
0.0434783, 1, Material-1, -60., Ply-22
0.0434783, 1, Material-1, -60., Ply-23
*End Part
**  
**
** ASSEMBLY
**
*Assembly, name=Assembly
**  
*Instance, name=bot-part-1, part=bot-part
*End Instance
**  
*Instance, name=fnm-1, part=fnm
          0.,           0.,        3.429
*End Instance
**  
*Instance, name=top-part-1, part=top-part
          0.,           0.,        4.191
*End Instance
**  
*Instance, name=clamp-tl-1, part=clamp-tl
       -12.7,           0.,        3.429
*End Instance
**  
*Instance, name=clamp-bl-1, part=clamp-bl
       -12.7,           0.,          -5.
*End Instance
**  
*Instance, name=clamp-tr-1, part=clamp-tr
       114.3,           0.,        7.112
*End Instance
**  
*Instance, name=clamp-br-1, part=clamp-br
       114.3,           0.,          -5.
*End Instance
**  
*Nset, nset=_PickedSet54, internal, instance=clamp-tl-1
 1,
*Nset, nset=_PickedSet54, internal, instance=clamp-tr-1
 1,
*Nset, nset=_PickedSet58, internal, instance=clamp-bl-1
 9,
*Nset, nset=_PickedSet59, internal, instance=clamp-tl-1
 9,
*Nset, nset=_PickedSet60, internal, instance=clamp-br-1
 9,
*Nset, nset=_PickedSet61, internal, instance=clamp-tr-1
 9,
*Nset, nset=_PickedSet63, internal, instance=clamp-tr-1
 9,
*Nset, nset=_PickedSet64, internal, instance=clamp-tl-1
 9,
*Nset, nset=load, instance=top-part-1
  14,  17, 625, 626, 627, 628, 629, 630, 631, 632, 633, 634, 635, 636, 637, 638
 639, 640, 641, 642, 643, 644, 645, 646, 647, 648
*Elset, elset=load, instance=top-part-1
 2201, 2212, 2223, 2234, 2245, 2256, 2267, 2278, 2289, 2300, 2311, 2322, 2333, 2344, 2355, 2366
 2377, 2388, 2399, 2410, 2421, 2432, 2443, 2454, 2465, 2524, 2573, 2622, 2671, 2720, 2769, 2818
 2867, 2916, 2965, 3014, 3063, 3112, 3161, 3210, 3259, 3308, 3357, 3406, 3455, 3504, 3553, 3602
 3651, 3700
*Elset, elset=_specimen-topl_S2, internal, instance=bot-part-1, generate
 1576,  2200,     1
*Surface, type=ELEMENT, name=specimen-topl
_specimen-topl_S2, S2
*Elset, elset=_specimen-topr_S2, internal, instance=top-part-1, generate
 1576,  2200,     1
*Surface, type=ELEMENT, name=specimen-topr
_specimen-topr_S2, S2
*Elset, elset=_specimen-botl_S1, internal, instance=bot-part-1, generate
 1576,  2200,     1
*Surface, type=ELEMENT, name=specimen-botl
_specimen-botl_S1, S1
*Elset, elset=_specimen-botr_S1, internal, instance=bot-part-1, generate
 3701,  4325,     1
*Surface, type=ELEMENT, name=specimen-botr
_specimen-botr_S1, S1
*Surface, type=NODE, name=fnm-1_botsurf_tie_CNS_, internal
fnm-1.botsurf_tie, 1.
*Surface, type=NODE, name=fnm-1_topsurf_tie_CNS_, internal
fnm-1.topsurf_tie, 1.
*Rigid Body, ref node=clamp-tl-1.clamp-tl-RefPt_, elset=clamp-tl-1.clamp-tl
*Rigid Body, ref node=clamp-bl-1.clamp-bl-RefPt_, elset=clamp-bl-1.clamp-bl
*Rigid Body, ref node=clamp-tr-1.clamp-tr-RefPt_, elset=clamp-tr-1.clamp-tr
*Rigid Body, ref node=clamp-br-1.clamp-br-RefPt_, elset=clamp-br-1.clamp-br
** Constraint: Constraint-1
*Tie, name=Constraint-1, adjust=yes
fnm-1_botsurf_tie_CNS_, bot-part-1.topsurf
** Constraint: Constraint-2
*Tie, name=Constraint-2, adjust=yes
fnm-1_topsurf_tie_CNS_, top-part-1.botsurf
*End Assembly
** 
** MATERIALS
** 
*Material, name=Material-1
*Elastic, type=ENGINEERING CONSTANTS
161000.,11400.,11400.,  0.32,  0.32, 0.436, 5170., 5170.
 3980.,
** 
** INTERACTION PROPERTIES
** 
*Surface Interaction, name=clamp
1.,
*Friction, slip tolerance=0.005
 0.23,
** 
** BOUNDARY CONDITIONS
** 
** Name: fixleft Type: Displacement/Rotation
*Boundary
_PickedSet58, 1, 1
_PickedSet58, 2, 2
_PickedSet58, 3, 3
_PickedSet58, 4, 4
_PickedSet58, 5, 5
_PickedSet58, 6, 6
** Name: fixlefttop Type: Displacement/Rotation
*Boundary
_PickedSet59, 1, 1
_PickedSet59, 2, 2
_PickedSet59, 4, 4
_PickedSet59, 5, 5
_PickedSet59, 6, 6
** Name: fixload Type: Displacement/Rotation
*Boundary
load, 1, 1
load, 2, 2
** Name: fixright Type: Displacement/Rotation
*Boundary
_PickedSet60, 1, 1
_PickedSet60, 2, 2
_PickedSet60, 3, 3
_PickedSet60, 4, 4
_PickedSet60, 5, 5
_PickedSet60, 6, 6
** Name: fixrighttop Type: Displacement/Rotation
*Boundary
_PickedSet61, 1, 1
_PickedSet61, 2, 2
_PickedSet61, 4, 4
_PickedSet61, 5, 5
_PickedSet61, 6, 6
** 
** INTERACTIONS
** 
** Interaction: Clamps
*Contact
*Contact Inclusions
clamp-tl-1.botsurf , specimen-topl
clamp-tr-1.botsurf , specimen-topr
clamp-bl-1.topsurf , specimen-botl
clamp-br-1.topsurf , specimen-botr
*Contact Property Assignment
 ,  , clamp
** ----------------------------------------------------------------
** 
** STEP: clamp
** 
*Step, name=clamp
*Static
1., 1., 1e-05, 1.
** 
** BOUNDARY CONDITIONS
** 
** Name: clamp-l Type: Displacement/Rotation
*Boundary
_PickedSet64, 3, 3, -0.00317
** Name: clamp-r Type: Displacement/Rotation
*Boundary
_PickedSet63, 3, 3, -0.006575
** 
** OUTPUT REQUESTS
** 
*Restart, write, frequency=0
** 
** FIELD OUTPUT: F-Output-1
** 
*Output, field
*Node Output
RF, U
*Element Output, directions=YES
E, S
** 
** HISTORY OUTPUT: H-Output-1
** 
*Output, history, variable=PRESELECT
*End Step
** ----------------------------------------------------------------
** 
** STEP: loading
** 
*Step, name=loading, inc=10000
*Static
0.001, 3., 0.0001, 0.001
** 
** BOUNDARY CONDITIONS
** 
** Name: load Type: Velocity/Angular velocity
*Boundary, type=VELOCITY
load, 3, 3, 1.
** 
** OUTPUT REQUESTS
** 
*Restart, write, frequency=0
** 
** FIELD OUTPUT: F-Output-1
** 
*Output, field
*Node Output
RF, U
*Element Output, directions=YES
E, S
** 
** HISTORY OUTPUT: H-Output-1
** 
*Output, history, variable=PRESELECT
*End Step
