*Heading
 first model built
** Job name: Carla2013-model1 Model name: Model-1
** Generated by: Abaqus/CAE 6.12-2
*Preprint, echo=NO, model=NO, history=NO, contact=NO
**
** PARTS
**
*Part, name=bot_part
*Node
      1,   39.3935013,   39.3935013,           0.
      2,          50.,          50.,           0.
      3,          50.,   28.7870007,           0.
      4,          50.,          50.,          1.5
      5,   39.3935013,   39.3935013,          1.5
      6,          50.,   28.7870007,          1.5
      7,          25.,          25.,           0.
      8,           0.,          50.,           0.
      9,   28.7870007,          50.,           0.
     10,          25.,          25.,          1.5
     11,   28.7870007,          50.,          1.5
     12,           0.,          50.,          1.5
     13,   17.6776695,   17.6776695,           0.
     14,          50.,           0.,           0.
     15,   35.3553391,           0.,           0.
     16,   17.6776695,   17.6776695,          1.5
     17,   35.3553391,           0.,          1.5
     18,          50.,           0.,          1.5
     19,           0.,   35.3553391,           0.
     20,           0.,   35.3553391,          1.5
** ... 7246 like lines cut
*Element, type=C3D8R
  1,   63,  807,  781,   64,  121,  994,  968,  120
  2,  944,   34,    2,   33, 1131,  150,    4,   86
  3,   34,  944,  948,   35,  150, 1131, 1135,  149
  4,  950,  925,  926,  911, 1137, 1112, 1113, 1098
  5,  951,  950,  911,  823, 1138, 1137, 1098, 1010
  6,  923,  942,  937,  936, 1110, 1129, 1124, 1123
  7,  934,  891,  822,  921, 1121, 1078, 1009, 1108
  8,   28,   27,  816,  819,   91,   92, 1003, 1006
  9,  867,  837,  844,  868, 1054, 1024, 1031, 1055
 10,  896,  958,  842,  870, 1083, 1145, 1029, 1057
 11,  790,   71,   70,  789,  977,  113,  114,  976
 12,   67,  780,  808,   68,  117,  967,  995,  116
 13,  815,  817,  858,  857, 1002, 1004, 1045, 1044
 14,  948,  925,  950,  949, 1135, 1112, 1137, 1136
 15,   30,   29,  821,  823,   89,   90, 1008, 1010
 16,  819,  821,   29,   28, 1006, 1008,   90,   91
 17,  818,  820,  862,  860, 1005, 1007, 1049, 1047
 18,  779,   69,   68,  808,  966,  115,  116,  995
 19,  787,   65,   64,  781,  974,  119,  120,  968
 20,   46,   45,  815,  814,  138,  139, 1002, 1001
** ... 3514 like lines cut
*Nset, nset=_PickedSet11, internal, generate
    1,  7266,     1
*Elset, elset=_PickedSet11, internal, generate
    1,  3534,     1
*Elset, elset=_topsurf_S2, internal, generate
    1,  3534,     1
*Surface, type=ELEMENT, name=topsurf
_topsurf_S2, S2
*Elset, elset=_botsurf_S1, internal, generate
    1,  3534,     1
*Surface, type=ELEMENT, name=botsurf
_botsurf_S1, S1
*Orientation, name=Ori-1
0.707106781186547, 0.707106781186547,           0., -0.707106781186547, 0.707106781186547,           0.
3, 0.
** Region: (CompositeLayup-1-1: Generated From Layup)
*Elset, elset=CompositeLayup-1-1, generate
    1,  3534,     1
** Section: CompositeLayup-1-1
*Solid Section, elset=CompositeLayup-1-1, composite, orientation=Ori-1, stack direction=3, layup=CompositeLayup-1
0.0833333, 1, Material-1, 0., Ply-1
0.0833333, 1, Material-1, -45., Ply-2
0.0833333, 1, Material-1, 45., Ply-3
0.0833333, 1, Material-1, 90., Ply-4
0.0833333, 1, Material-1, 90., Ply-5
0.0833333, 1, Material-1, 45., Ply-6
0.0833333, 1, Material-1, -45., Ply-7
0.0833333, 1, Material-1, 0., Ply-8
0.0833333, 1, Material-1, 0., Ply-9
0.0833333, 1, Material-1, 45., Ply-10
0.0833333, 1, Material-1, -45., Ply-11
0.0833333, 1, Material-1, 90., Ply-12
*End Part
**  
*Part, name=fnm
*Node
      1,   39.3935013,   39.3935013,           0.
      2,          50.,          50.,           0.
      3,          50.,   28.7870007,           0.
      4,          50.,          50.,        0.625
      5,   39.3935013,   39.3935013,        0.625
      6,          50.,   28.7870007,        0.625
      7,          25.,          25.,           0.
      8,           0.,          50.,           0.
      9,   28.7870007,          50.,           0.
     10,          25.,          25.,        0.625
     11,   28.7870007,          50.,        0.625
     12,           0.,          50.,        0.625
     13,   17.6776695,   17.6776695,           0.
     14,          50.,           0.,           0.
     15,   35.3553391,           0.,           0.
     16,   17.6776695,   17.6776695,        0.625
     17,   35.3553391,           0.,        0.625
     18,          50.,           0.,        0.625
     19,           0.,   35.3553391,           0.
     20,           0.,   35.3553391,        0.625
** ... 7246 like lines cut
*Element, type=C3D8R
  1,   63,  807,  781,   64,  121,  994,  968,  120
  2,  944,   34,    2,   33, 1131,  150,    4,   86
  3,   34,  944,  948,   35,  150, 1131, 1135,  149
  4,  950,  925,  926,  911, 1137, 1112, 1113, 1098
  5,  951,  950,  911,  823, 1138, 1137, 1098, 1010
  6,  923,  942,  937,  936, 1110, 1129, 1124, 1123
  7,  934,  891,  822,  921, 1121, 1078, 1009, 1108
  8,   28,   27,  816,  819,   91,   92, 1003, 1006
  9,  867,  837,  844,  868, 1054, 1024, 1031, 1055
 10,  896,  958,  842,  870, 1083, 1145, 1029, 1057
 11,  790,   71,   70,  789,  977,  113,  114,  976
 12,   67,  780,  808,   68,  117,  967,  995,  116
 13,  815,  817,  858,  857, 1002, 1004, 1045, 1044
 14,  948,  925,  950,  949, 1135, 1112, 1137, 1136
 15,   30,   29,  821,  823,   89,   90, 1008, 1010
 16,  819,  821,   29,   28, 1006, 1008,   90,   91
 17,  818,  820,  862,  860, 1005, 1007, 1049, 1047
 18,  779,   69,   68,  808,  966,  115,  116,  995
 19,  787,   65,   64,  781,  974,  119,  120,  968
 20,   46,   45,  815,  814,  138,  139, 1002, 1001
** ... 3514 like lines cut
*Nset, nset=_PickedSet11, internal, generate
    1,  7266,     1
*Elset, elset=_PickedSet11, internal, generate
    1,  3534,     1
*Nset, nset=topsurf_tie
    4,    5,    6,   10,   11,   12,   16,   17,   18,   20,   86,   87,   88,   89,   90,   91
   92,   93,   94,   95,   96,   97,   98,   99,  100,  101,  102,  103,  104,  105,  106,  107
  108,  109,  110,  111,  112,  113,  114,  115,  116,  117,  118,  119,  120,  121,  122,  123
  124,  125,  126,  127,  128,  129,  130,  131,  132,  133,  134,  135,  136,  137,  138,  139
  140,  141,  142,  143,  144,  145,  146,  147,  148,  149,  150,  275,  276,  277,  278,  279
  280,  281,  282,  283,  284,  285,  286,  287,  288,  289,  290,  291,  292,  293,  294,  295
  296,  297,  298,  299,  300,  301,  302,  303,  304,  305,  306,  307,  308,  309,  310,  311
  312,  313,  314,  315,  316,  317,  318,  319,  320,  321,  322,  323,  324,  325,  326,  327
  328,  329,  330,  331,  332,  333,  334,  335,  336,  337,  338,  339,  340,  341,  342,  343
  344,  345,  346,  347,  348,  349,  350,  351,  352,  353,  354,  355,  356,  357,  358,  359
  360,  361,  362,  363,  364,  365,  366,  367,  368,  369,  370,  371,  372,  373,  374,  375
  376,  377,  378,  379,  380,  381,  382,  383,  384,  385,  386,  387,  388,  389,  390,  391
  392,  393,  394,  395,  396,  397,  398,  495,  496,  497,  498,  499,  500,  501,  502,  503
  504,  505,  506,  507,  508,  509,  510,  511,  512,  513,  514,  515,  516,  517,  518,  519
  520,  521,  522,  523,  524,  525,  526,  527,  528,  529,  530,  531,  532,  533,  534,  535
  536,  537,  538,  539,  540,  541,  542,  543,  544,  545,  546,  547,  548,  549,  550,  551
  552,  553,  554,  555,  556,  557,  558,  559,  560,  561,  562,  563,  564,  565,  566,  567
  568,  569,  570,  571,  572,  573,  574,  575,  576,  577,  578,  579,  580,  581,  582,  583
  584,  585,  586,  587,  588,  589,  590,  639,  640,  641,  642,  643,  644,  645,  646,  647
  648,  649,  650,  651,  652,  653,  654,  655,  656,  657,  658,  659,  660,  661,  662,  663
** ... 208 like lines cut
*Nset, nset=botsurf_tie
    1,    2,    3,    7,    8,    9,   13,   14,   15,   19,   21,   22,   23,   24,   25,   26
   27,   28,   29,   30,   31,   32,   33,   34,   35,   36,   37,   38,   39,   40,   41,   42
   43,   44,   45,   46,   47,   48,   49,   50,   51,   52,   53,   54,   55,   56,   57,   58
   59,   60,   61,   62,   63,   64,   65,   66,   67,   68,   69,   70,   71,   72,   73,   74
   75,   76,   77,   78,   79,   80,   81,   82,   83,   84,   85,  151,  152,  153,  154,  155
  156,  157,  158,  159,  160,  161,  162,  163,  164,  165,  166,  167,  168,  169,  170,  171
  172,  173,  174,  175,  176,  177,  178,  179,  180,  181,  182,  183,  184,  185,  186,  187
  188,  189,  190,  191,  192,  193,  194,  195,  196,  197,  198,  199,  200,  201,  202,  203
  204,  205,  206,  207,  208,  209,  210,  211,  212,  213,  214,  215,  216,  217,  218,  219
  220,  221,  222,  223,  224,  225,  226,  227,  228,  229,  230,  231,  232,  233,  234,  235
  236,  237,  238,  239,  240,  241,  242,  243,  244,  245,  246,  247,  248,  249,  250,  251
  252,  253,  254,  255,  256,  257,  258,  259,  260,  261,  262,  263,  264,  265,  266,  267
  268,  269,  270,  271,  272,  273,  274,  399,  400,  401,  402,  403,  404,  405,  406,  407
  408,  409,  410,  411,  412,  413,  414,  415,  416,  417,  418,  419,  420,  421,  422,  423
  424,  425,  426,  427,  428,  429,  430,  431,  432,  433,  434,  435,  436,  437,  438,  439
  440,  441,  442,  443,  444,  445,  446,  447,  448,  449,  450,  451,  452,  453,  454,  455
  456,  457,  458,  459,  460,  461,  462,  463,  464,  465,  466,  467,  468,  469,  470,  471
  472,  473,  474,  475,  476,  477,  478,  479,  480,  481,  482,  483,  484,  485,  486,  487
  488,  489,  490,  491,  492,  493,  494,  591,  592,  593,  594,  595,  596,  597,  598,  599
  600,  601,  602,  603,  604,  605,  606,  607,  608,  609,  610,  611,  612,  613,  614,  615
** ... 208 like lines cut
*Elset, elset=predelam
    1,    2,    3,    4,    5,    6,    7,    8,    9,   10,   11,   12,   13,   14,   15,   16
   17,   18,   19,   20,   21,   22,   23,   24,   25,   26,   27,   28,   29,   30,   31,   32
   33,   34,   35,   36,   37,   38,   39,   40,   41,   42,   43,   44,   45,   46,   47,   48
   49,   50,   51,   52,   53,   54,   55,   56,   57,   58,   59,   60,   61,   62,   63,   64
   65,   66,   67,   68,   69,   70,   71,   72,   73,   74,   75,   76,   77,   78,   79,   80
   81,   82,   83,   84,   85,   86,   87,   88,   89,   90,   91,   92,   93,   94,   95,   96
   97,   98,   99,  100,  101,  102,  103,  104,  105,  106,  107,  108,  109,  110,  111,  112
  113,  114,  115,  116,  117,  118,  119,  120,  121,  122,  123,  124,  125,  126,  127,  128
  129,  130,  131,  132,  133,  134,  135,  136,  137,  138,  139,  140,  141,  142,  143,  144
  145,  146,  147,  148,  149,  150,  151,  152,  153,  154,  155,  156,  157,  158,  159,  160
  161,  162,  163,  164,  165,  166,  167,  168,  169,  170,  171,  172,  173,  174,  175,  176
  177,  178,  179,  180,  181,  182,  183,  184,  185,  186,  187,  188,  189,  190,  191,  192
  193,  194,  195,  196,  197,  198,  199,  200,  201,  202,  203,  204,  205,  206,  207,  208
  209,  210,  211,  212,  213,  214,  215,  216,  217,  218,  219,  220, 3301, 3302, 3303, 3304
 3305, 3306, 3307, 3308, 3309, 3310, 3311, 3312, 3313, 3314, 3315, 3316, 3317, 3318, 3319, 3320
 3321, 3322, 3323, 3324, 3325, 3326, 3327, 3328, 3329, 3330, 3331, 3332, 3333, 3334, 3335, 3336
 3337, 3338, 3339, 3340, 3341, 3342, 3343, 3344, 3345, 3346, 3347, 3348, 3349, 3350, 3351, 3352
 3353, 3354, 3355, 3356, 3357, 3358, 3359, 3360, 3361, 3362, 3363, 3364, 3365, 3366, 3367, 3368
 3369, 3370, 3371, 3372, 3373, 3374, 3375, 3376, 3377, 3378, 3379, 3380, 3381, 3382, 3383, 3384
 3385, 3386, 3387, 3388, 3389, 3390, 3391, 3392, 3393, 3394, 3395, 3396, 3397, 3398, 3399, 3400
** ... 9 like lines cut
*Nset, nset=fixleft
  13,  15,  16,  17,  19,  20, 461, 462, 463, 464, 465, 466, 467, 468, 469, 470
 471, 472, 473, 474, 475, 476, 477, 478, 479, 480, 481, 482, 483, 484, 485, 486
 487, 488, 489, 490, 491, 492, 493, 494, 509, 510, 511, 512, 513, 514, 515, 516
 517, 518, 519, 520, 521, 522, 523, 524, 525, 526, 527, 528, 529, 530, 531, 532
 533, 534, 535, 536, 537, 538, 539, 540, 541, 542, 591, 592, 593, 594, 595, 596
 597, 598, 599, 600, 601, 602, 603, 604, 605, 606, 607, 608, 609, 610, 611, 612
 613, 614, 615, 616, 617, 618, 619, 620, 621, 622, 623, 624, 653, 654, 655, 656
 657, 658, 659, 660, 661, 662, 663, 664, 665, 666, 667, 668, 669, 670, 671, 672
 673, 674, 675, 676, 677, 678, 679, 680, 681, 682, 683, 684, 685, 686
** Section: Section-1
*Solid Section, elset=_PickedSet11, material=Material-1
,
*End Part
**  
*Part, name=top_part
*Node
      1,   39.3935013,   39.3935013,           0.
      2,          50.,          50.,           0.
      3,          50.,   28.7870007,           0.
      4,          50.,          50.,        1.875
      5,   39.3935013,   39.3935013,        1.875
      6,          50.,   28.7870007,        1.875
      7,          25.,          25.,           0.
      8,           0.,          50.,           0.
      9,   28.7870007,          50.,           0.
     10,          25.,          25.,        1.875
     11,   28.7870007,          50.,        1.875
     12,           0.,          50.,        1.875
     13,   17.6776695,   17.6776695,           0.
     14,          50.,           0.,           0.
     15,   35.3553391,           0.,           0.
     16,   17.6776695,   17.6776695,        1.875
     17,   35.3553391,           0.,        1.875
     18,          50.,           0.,        1.875
     19,           0.,   35.3553391,           0.
     20,           0.,   35.3553391,        1.875
** ... 7246 like lines cut
*Element, type=C3D8R
  1,   63,  807,  781,   64,  121,  994,  968,  120
  2,  944,   34,    2,   33, 1131,  150,    4,   86
  3,   34,  944,  948,   35,  150, 1131, 1135,  149
  4,  950,  925,  926,  911, 1137, 1112, 1113, 1098
  5,  951,  950,  911,  823, 1138, 1137, 1098, 1010
  6,  923,  942,  937,  936, 1110, 1129, 1124, 1123
  7,  934,  891,  822,  921, 1121, 1078, 1009, 1108
  8,   28,   27,  816,  819,   91,   92, 1003, 1006
  9,  867,  837,  844,  868, 1054, 1024, 1031, 1055
 10,  896,  958,  842,  870, 1083, 1145, 1029, 1057
 11,  790,   71,   70,  789,  977,  113,  114,  976
 12,   67,  780,  808,   68,  117,  967,  995,  116
 13,  815,  817,  858,  857, 1002, 1004, 1045, 1044
 14,  948,  925,  950,  949, 1135, 1112, 1137, 1136
 15,   30,   29,  821,  823,   89,   90, 1008, 1010
 16,  819,  821,   29,   28, 1006, 1008,   90,   91
 17,  818,  820,  862,  860, 1005, 1007, 1049, 1047
 18,  779,   69,   68,  808,  966,  115,  116,  995
 19,  787,   65,   64,  781,  974,  119,  120,  968
 20,   46,   45,  815,  814,  138,  139, 1002, 1001
** ... 3514 like lines cut
*Nset, nset=_PickedSet11, internal, generate
    1,  7266,     1
*Elset, elset=_PickedSet11, internal, generate
    1,  3534,     1
*Elset, elset=_topsurf_S2, internal, generate
    1,  3534,     1
*Surface, type=ELEMENT, name=topsurf
_topsurf_S2, S2
*Elset, elset=_botsurf_S1, internal, generate
    1,  3534,     1
*Surface, type=ELEMENT, name=botsurf
_botsurf_S1, S1
*Orientation, name=Ori-1
0.707106781186547, 0.707106781186547,           0., -0.707106781186547, 0.707106781186547,           0.
3, 0.
** Region: (CompositeLayup-1-1: Generated From Layup)
*Elset, elset=CompositeLayup-1-1, generate
    1,  3534,     1
** Section: CompositeLayup-1-1
*Solid Section, elset=CompositeLayup-1-1, composite, orientation=Ori-1, stack direction=3, layup=CompositeLayup-1
0.0666667, 1, Material-1, 45., Ply-1
0.0666667, 1, Material-1, -45., Ply-2
0.0666667, 1, Material-1, 0., Ply-3
0.0666667, 1, Material-1, 0., Ply-4
0.0666667, 1, Material-1, -45., Ply-5
0.0666667, 1, Material-1, 45., Ply-6
0.0666667, 1, Material-1, 90., Ply-7
0.0666667, 1, Material-1, 90., Ply-8
0.0666667, 1, Material-1, -45., Ply-9
0.0666667, 1, Material-1, 45., Ply-10
0.0666667, 1, Material-1, 0., Ply-11
0.0666667, 1, Material-1, 0., Ply-12
0.0666667, 1, Material-1, 45., Ply-13
0.0666667, 1, Material-1, -45., Ply-14
0.0666667, 1, Material-1, 90., Ply-15
*End Part
**  
**
** ASSEMBLY
**
*Assembly, name=Assembly
**  
*Instance, name=bot_part-1, part=bot_part
*End Instance
**  
*Instance, name=fnm-1, part=fnm
          0.,           0.,          1.5
*End Instance
**  
*Instance, name=top_part-1, part=top_part
          0.,           0.,        2.125
*End Instance
**  
*Nset, nset=fixleft, instance=bot_part-1
  13,  15,  16,  17,  19,  20, 461, 462, 463, 464, 465, 466, 467, 468, 469, 470
 471, 472, 473, 474, 475, 476, 477, 478, 479, 480, 481, 482, 483, 484, 485, 486
 487, 488, 489, 490, 491, 492, 493, 494, 509, 510, 511, 512, 513, 514, 515, 516
 517, 518, 519, 520, 521, 522, 523, 524, 525, 526, 527, 528, 529, 530, 531, 532
 533, 534, 535, 536, 537, 538, 539, 540, 541, 542, 591, 592, 593, 594, 595, 596
 597, 598, 599, 600, 601, 602, 603, 604, 605, 606, 607, 608, 609, 610, 611, 612
 613, 614, 615, 616, 617, 618, 619, 620, 621, 622, 623, 624, 653, 654, 655, 656
 657, 658, 659, 660, 661, 662, 663, 664, 665, 666, 667, 668, 669, 670, 671, 672
 673, 674, 675, 676, 677, 678, 679, 680, 681, 682, 683, 684, 685, 686
*Nset, nset=fixleft, instance=top_part-1
  13,  15,  16,  17,  19,  20, 461, 462, 463, 464, 465, 466, 467, 468, 469, 470
 471, 472, 473, 474, 475, 476, 477, 478, 479, 480, 481, 482, 483, 484, 485, 486
 487, 488, 489, 490, 491, 492, 493, 494, 509, 510, 511, 512, 513, 514, 515, 516
 517, 518, 519, 520, 521, 522, 523, 524, 525, 526, 527, 528, 529, 530, 531, 532
 533, 534, 535, 536, 537, 538, 539, 540, 541, 542, 591, 592, 593, 594, 595, 596
 597, 598, 599, 600, 601, 602, 603, 604, 605, 606, 607, 608, 609, 610, 611, 612
 613, 614, 615, 616, 617, 618, 619, 620, 621, 622, 623, 624, 653, 654, 655, 656
 657, 658, 659, 660, 661, 662, 663, 664, 665, 666, 667, 668, 669, 670, 671, 672
 673, 674, 675, 676, 677, 678, 679, 680, 681, 682, 683, 684, 685, 686
*Elset, elset=fixleft, instance=bot_part-1
 1236, 1251, 1266, 1281, 1296, 1311, 1326, 1341, 1356, 1371, 1386, 1401, 1416, 1431, 1446, 1461
 1476, 1491, 1506, 1521, 1536, 1551, 1566, 1581, 1596, 1611, 1626, 1641, 1656, 1671, 1686, 1701
 1716, 1731, 1746, 1775, 1790, 1805, 1820, 1835, 1850, 1865, 1880, 1895, 1910, 1925, 1940, 1955
 1970, 1985, 2000, 2015, 2030, 2045, 2060, 2075, 2090, 2105, 2120, 2135, 2150, 2165, 2180, 2195
 2210, 2225, 2240, 2255, 2270, 2285
*Elset, elset=fixleft, instance=top_part-1
 1236, 1251, 1266, 1281, 1296, 1311, 1326, 1341, 1356, 1371, 1386, 1401, 1416, 1431, 1446, 1461
 1476, 1491, 1506, 1521, 1536, 1551, 1566, 1581, 1596, 1611, 1626, 1641, 1656, 1671, 1686, 1701
 1716, 1731, 1746, 1775, 1790, 1805, 1820, 1835, 1850, 1865, 1880, 1895, 1910, 1925, 1940, 1955
 1970, 1985, 2000, 2015, 2030, 2045, 2060, 2075, 2090, 2105, 2120, 2135, 2150, 2165, 2180, 2195
 2210, 2225, 2240, 2255, 2270, 2285
*Nset, nset=loadpoint, instance=top_part-1
 4,
*Surface, type=NODE, name=fnm-1_topsurf_tie_CNS_, internal
fnm-1.topsurf_tie, 1.
*Surface, type=NODE, name=fnm-1_botsurf_tie_CNS_, internal
fnm-1.botsurf_tie, 1.
** Constraint: Constraint-1
*Tie, name=Constraint-1, adjust=yes
fnm-1_topsurf_tie_CNS_, top_part-1.botsurf
** Constraint: Constraint-2
*Tie, name=Constraint-2, adjust=yes
fnm-1_botsurf_tie_CNS_, bot_part-1.topsurf
*End Assembly
** 
** MATERIALS
** 
*Material, name=Material-1
*Elastic, type=ENGINEERING CONSTANTS
161000.,11400.,11400.,  0.32,  0.32, 0.436, 5170., 5170.
 3980.,
** 
** BOUNDARY CONDITIONS
** 
** Name: fixleft Type: Symmetry/Antisymmetry/Encastre
*Boundary
fixleft, PINNED
** Name: fixleft-fnm Type: Symmetry/Antisymmetry/Encastre
*Boundary
fnm-1.fixleft, PINNED
** ----------------------------------------------------------------
** 
** STEP: loading
** 
*Step, name=loading, inc=10000
*Static
0.01, 8., 0.001, 0.01
** 
** BOUNDARY CONDITIONS
** 
** Name: load Type: Velocity/Angular velocity
*Boundary, type=VELOCITY
loadpoint, 3, 3, -1.
** 
** OUTPUT REQUESTS
** 
*Restart, write, frequency=0
** 
** FIELD OUTPUT: F-Output-1
** 
*Output, field
*Node Output
RF, U
*Element Output, directions=YES
E, S
** 
** HISTORY OUTPUT: H-Output-1
** 
*Output, history, variable=PRESELECT
*End Step
