*Heading
** Job name: Pnc60clt-l Model name: Pnc60clt-l
** Generated by: Abaqus/CAE 6.12-2
*Preprint, echo=NO, model=NO, history=NO, contact=NO
**
** PARTS
**
*Part, name=bot-part
*Node
      1,   18.5499992,   12.6999998,    3.4289999
      2,   18.5499992,   12.6999998,           0.
      3,           0.,   12.6999998,           0.
      4,           0.,   12.6999998,    3.4289999
      5,   18.5499992,           0.,           0.
      6,           0.,           0.,           0.
      7,           0.,           0.,    3.4289999
      8,   18.5499992,           0.,    3.4289999
      9,          83.,   12.6999998,    3.4289999
     10,          83.,   12.6999998,           0.
     11,          53.,   12.6999998,           0.
     12,          53.,   12.6999998,    3.4289999
     13,          83.,           0.,           0.
     14,          53.,           0.,           0.
     15,          53.,           0.,    3.4289999
     16,          83.,           0.,    3.4289999
     17,   114.300003,   12.6999998,    3.4289999
     18,   114.300003,           0.,    3.4289999
     19,   114.300003,           0.,           0.
     20,   114.300003,   12.6999998,           0.
** ... 9184 like lines cut
*Element, type=C3D8R
  1, 1405,  169,    2,   21,  949,  144,    1,   58
  2, 1406, 1405,   21,   22,  950,  949,   58,   57
  3, 1407, 1406,   22,   23,  951,  950,   57,   56
  4, 1408, 1407,   23,   24,  952,  951,   56,   55
  5, 1409, 1408,   24,   25,  953,  952,   55,   54
  6, 1410, 1409,   25,   26,  954,  953,   54,   53
  7, 1411, 1410,   26,   27,  955,  954,   53,   52
  8, 1412, 1411,   27,   28,  956,  955,   52,   51
  9, 1413, 1412,   28,   29,  957,  956,   51,   50
 10, 1414, 1413,   29,   30,  958,  957,   50,   49
 11, 1415, 1414,   30,   31,  959,  958,   49,   48
 12, 1416, 1415,   31,   32,  960,  959,   48,   47
 13, 1417, 1416,   32,   33,  961,  960,   47,   46
 14, 1418, 1417,   33,   34,  962,  961,   46,   45
 15, 1419, 1418,   34,   35,  963,  962,   45,   44
 16, 1420, 1419,   35,   36,  964,  963,   44,   43
 17, 1421, 1420,   36,   37,  965,  964,   43,   42
 18, 1422, 1421,   37,   38,  966,  965,   42,   41
 19, 1423, 1422,   38,   39,  967,  966,   41,   40
 20,  168, 1423,   39,    3,   97,  967,   40,    4
** ... 4380 like lines cut
*Nset, nset=_PickedSet37, internal, generate
    1,  9204,     1
*Elset, elset=_PickedSet37, internal, generate
    1,  4400,     1
*Elset, elset=_topsurf_S2, internal, generate
    1,  4400,     1
*Surface, type=ELEMENT, name=topsurf
_topsurf_S2, S2
*Orientation, name=Ori-1
          1.,           0.,           0.,           0.,           1.,           0.
3, 0.
** Region: (CompositeLayup-1-1: Generated From Layup)
*Elset, elset=CompositeLayup-1-1, generate
    1,  4400,     1
** Section: CompositeLayup-1-1
*Solid Section, elset=CompositeLayup-1-1, composite, orientation=Ori-1, stack direction=3, layup=CompositeLayup-1
0.037037, 1, Material-1, 60., Ply-1
0.037037, 1, Material-1, 0., Ply-2
0.037037, 1, Material-1, 60., Ply-3
0.037037, 1, Material-1, 60., Ply-4
0.037037, 1, Material-1, 60., Ply-5
0.037037, 1, Material-1, -60., Ply-6
0.037037, 1, Material-1, -60., Ply-7
0.037037, 1, Material-1, -60., Ply-8
0.037037, 1, Material-1, -60., Ply-9
0.037037, 1, Material-1, -30., Ply-10
0.037037, 1, Material-1, -60., Ply-11
0.037037, 1, Material-1, -30., Ply-12
0.037037, 1, Material-1, 90., Ply-13
0.037037, 1, Material-1, -30., Ply-14
0.037037, 1, Material-1, 30., Ply-15
0.037037, 1, Material-1, 90., Ply-16
0.037037, 1, Material-1, 30., Ply-17
0.037037, 1, Material-1, 60., Ply-18
0.037037, 1, Material-1, 30., Ply-19
0.037037, 1, Material-1, 60., Ply-20
** ... 7 like lines cut
*End Part
**  
*Part, name=fnm
*Node
      1,   18.5499992,   12.6999998,  0.762000024
      2,   18.5499992,   12.6999998,           0.
      3,           0.,   12.6999998,           0.
      4,           0.,   12.6999998,  0.762000024
      5,   18.5499992,           0.,           0.
      6,           0.,           0.,           0.
      7,           0.,           0.,  0.762000024
      8,   18.5499992,           0.,  0.762000024
      9,          83.,   12.6999998,  0.762000024
     10,          83.,   12.6999998,           0.
     11,          53.,   12.6999998,           0.
     12,          53.,   12.6999998,  0.762000024
     13,          83.,           0.,           0.
     14,          53.,           0.,           0.
     15,          53.,           0.,  0.762000024
     16,          83.,           0.,  0.762000024
     17,   114.300003,   12.6999998,  0.762000024
     18,   114.300003,           0.,  0.762000024
     19,   114.300003,           0.,           0.
     20,   114.300003,   12.6999998,           0.
** ... 9184 like lines cut
*Element, type=C3D8R
  1, 1405,  169,    2,   21,  949,  144,    1,   58
  2, 1406, 1405,   21,   22,  950,  949,   58,   57
  3, 1407, 1406,   22,   23,  951,  950,   57,   56
  4, 1408, 1407,   23,   24,  952,  951,   56,   55
  5, 1409, 1408,   24,   25,  953,  952,   55,   54
  6, 1410, 1409,   25,   26,  954,  953,   54,   53
  7, 1411, 1410,   26,   27,  955,  954,   53,   52
  8, 1412, 1411,   27,   28,  956,  955,   52,   51
  9, 1413, 1412,   28,   29,  957,  956,   51,   50
 10, 1414, 1413,   29,   30,  958,  957,   50,   49
 11, 1415, 1414,   30,   31,  959,  958,   49,   48
 12, 1416, 1415,   31,   32,  960,  959,   48,   47
 13, 1417, 1416,   32,   33,  961,  960,   47,   46
 14, 1418, 1417,   33,   34,  962,  961,   46,   45
 15, 1419, 1418,   34,   35,  963,  962,   45,   44
 16, 1420, 1419,   35,   36,  964,  963,   44,   43
 17, 1421, 1420,   36,   37,  965,  964,   43,   42
 18, 1422, 1421,   37,   38,  966,  965,   42,   41
 19, 1423, 1422,   38,   39,  967,  966,   41,   40
 20,  168, 1423,   39,    3,   97,  967,   40,    4
** ... 4380 like lines cut
*Elset, elset=predelam
    1,    2,    3,    4,    5,    6,    7,    8,    9,   10,   11,   12,   13,   14,   15,   16
   17,   18,   19,   20,   21,   22,   23,   24,   25,   26,   27,   28,   29,   30,   31,   32
   33,   34,   35,   36,   37,   38,   39,   40,   41,   42,   43,   44,   45,   46,   47,   48
   49,   50,   51,   52,   53,   54,   55,   56,   57,   58,   59,   60,   61,   62,   63,   64
   65,   66,   67,   68,   69,   70,   71,   72,   73,   74,   75,   76,   77,   78,   79,   80
   81,   82,   83,   84,   85,   86,   87,   88,   89,   90,   91,   92,   93,   94,   95,   96
   97,   98,   99,  100,  101,  102,  103,  104,  105,  106,  107,  108,  109,  110,  111,  112
  113,  114,  115,  116,  117,  118,  119,  120,  121,  122,  123,  124,  125,  126,  127,  128
  129,  130,  131,  132,  133,  134,  135,  136,  137,  138,  139,  140,  141,  142,  143,  144
  145,  146,  147,  148,  149,  150,  151,  152,  153,  154,  155,  156,  157,  158,  159,  160
  161,  162,  163,  164,  165,  166,  167,  168,  169,  170,  171,  172,  173,  174,  175,  176
  177,  178,  179,  180,  181,  182,  183,  184,  185,  186,  187,  188,  189,  190,  191,  192
  193,  194,  195,  196,  197,  198,  199,  200,  201,  202,  203,  204,  205,  206,  207,  208
  209,  210,  211,  212,  213,  214,  215,  216,  217,  218,  219,  220,  221,  222,  223,  224
  225,  226,  227,  228,  229,  230,  231,  232,  233,  234,  235,  236,  237,  238,  239,  240
  241,  242,  243,  244,  245,  246,  247,  248,  249,  250,  251,  252,  253,  254,  255,  256
  257,  258,  259,  260,  261,  262,  263,  264,  265,  266,  267,  268,  269,  270,  271,  272
  273,  274,  275,  276,  277,  278,  279,  280,  281,  282,  283,  284,  285,  286,  287,  288
  289,  290,  291,  292,  293,  294,  295,  296,  297,  298,  299,  300,  301,  302,  303,  304
  305,  306,  307,  308,  309,  310,  311,  312,  313,  314,  315,  316,  317,  318,  319,  320
** ... 95 like lines cut
*Nset, nset=topsurf_tie
    1,    4,    7,    8,    9,   12,   15,   16,   17,   18,   40,   41,   42,   43,   44,   45
   46,   47,   48,   49,   50,   51,   52,   53,   54,   55,   56,   57,   58,   78,   79,   80
   81,   82,   83,   84,   85,   86,   87,   88,   89,   90,   91,   92,   93,   94,   95,   96
   97,   98,   99,  100,  101,  102,  103,  104,  105,  106,  107,  108,  109,  110,  111,  112
  113,  114,  115,  116,  117,  118,  119,  120,  121,  122,  123,  124,  125,  126,  127,  128
  129,  130,  131,  132,  133,  134,  135,  136,  137,  138,  139,  140,  141,  142,  143,  144
  252,  253,  254,  255,  256,  257,  258,  259,  260,  261,  262,  263,  264,  265,  266,  267
  268,  269,  270,  271,  272,  273,  274,  275,  276,  277,  278,  279,  280,  281,  282,  283
  284,  285,  286,  287,  288,  289,  290,  291,  292,  293,  294,  295,  296,  297,  298,  299
  300,  301,  302,  303,  304,  305,  306,  307,  308,  309,  310,  370,  371,  372,  373,  374
  375,  376,  377,  378,  379,  380,  381,  382,  383,  384,  385,  386,  387,  388,  389,  390
  391,  392,  393,  394,  395,  396,  397,  398,  399,  400,  401,  402,  403,  404,  405,  406
  407,  408,  409,  410,  411,  412,  413,  414,  415,  416,  417,  418,  419,  420,  421,  422
  423,  424,  425,  426,  427,  428,  429,  430,  431,  432,  433,  434,  435,  436,  437,  438
  439,  440,  441,  442,  443,  444,  445,  446,  447,  448,  449,  450,  451,  452,  453,  454
  455,  456,  457,  458,  459,  460,  461,  462,  463,  464,  465,  466,  467,  468,  469,  470
  471,  472,  473,  474,  475,  476,  525,  526,  527,  528,  529,  530,  531,  532,  533,  534
  535,  536,  537,  538,  539,  540,  541,  542,  543,  544,  545,  546,  547,  548,  549,  550
  551,  552,  553,  554,  555,  556,  557,  558,  559,  560,  561,  562,  563,  564,  565,  566
  567,  568,  569,  570,  571,  572,  573,  574,  575,  576,  629,  630,  631,  632,  633,  634
** ... 268 like lines cut
*Nset, nset=botsurf_tie
    2,    3,    5,    6,   10,   11,   13,   14,   19,   20,   21,   22,   23,   24,   25,   26
   27,   28,   29,   30,   31,   32,   33,   34,   35,   36,   37,   38,   39,   59,   60,   61
   62,   63,   64,   65,   66,   67,   68,   69,   70,   71,   72,   73,   74,   75,   76,   77
  145,  146,  147,  148,  149,  150,  151,  152,  153,  154,  155,  156,  157,  158,  159,  160
  161,  162,  163,  164,  165,  166,  167,  168,  169,  170,  171,  172,  173,  174,  175,  176
  177,  178,  179,  180,  181,  182,  183,  184,  185,  186,  187,  188,  189,  190,  191,  192
  193,  194,  195,  196,  197,  198,  199,  200,  201,  202,  203,  204,  205,  206,  207,  208
  209,  210,  211,  212,  213,  214,  215,  216,  217,  218,  219,  220,  221,  222,  223,  224
  225,  226,  227,  228,  229,  230,  231,  232,  233,  234,  235,  236,  237,  238,  239,  240
  241,  242,  243,  244,  245,  246,  247,  248,  249,  250,  251,  311,  312,  313,  314,  315
  316,  317,  318,  319,  320,  321,  322,  323,  324,  325,  326,  327,  328,  329,  330,  331
  332,  333,  334,  335,  336,  337,  338,  339,  340,  341,  342,  343,  344,  345,  346,  347
  348,  349,  350,  351,  352,  353,  354,  355,  356,  357,  358,  359,  360,  361,  362,  363
  364,  365,  366,  367,  368,  369,  477,  478,  479,  480,  481,  482,  483,  484,  485,  486
  487,  488,  489,  490,  491,  492,  493,  494,  495,  496,  497,  498,  499,  500,  501,  502
  503,  504,  505,  506,  507,  508,  509,  510,  511,  512,  513,  514,  515,  516,  517,  518
  519,  520,  521,  522,  523,  524,  577,  578,  579,  580,  581,  582,  583,  584,  585,  586
  587,  588,  589,  590,  591,  592,  593,  594,  595,  596,  597,  598,  599,  600,  601,  602
  603,  604,  605,  606,  607,  608,  609,  610,  611,  612,  613,  614,  615,  616,  617,  618
  619,  620,  621,  622,  623,  624,  625,  626,  627,  628,  681,  682,  683,  684,  685,  686
** ... 268 like lines cut
*Nset, nset=right_tie
  17,  18,  19,  20, 733, 734, 735, 736, 737, 738, 739, 740, 741, 742, 743, 744
 745, 746, 747, 748, 749, 750, 751, 752, 753, 754, 755, 756, 757, 758, 759, 760
 761, 762, 763, 764, 765, 766, 767, 768, 769, 770, 771, 772, 773, 774, 775, 776
 777, 778, 779, 780
*End Part
**  
*Part, name=top-part
*Node
      1,   18.5499992,   12.6999998,        2.921
      2,   18.5499992,   12.6999998,           0.
      3,   18.5499992,           0.,           0.
      4,   18.5499992,           0.,        2.921
      5,          83.,   12.6999998,        2.921
      6,          83.,   12.6999998,           0.
      7,          53.,   12.6999998,           0.
      8,          53.,   12.6999998,        2.921
      9,          83.,           0.,           0.
     10,          53.,           0.,           0.
     11,          53.,           0.,        2.921
     12,          83.,           0.,        2.921
     13,   114.300003,   12.6999998,        2.921
     14,   114.300003,           0.,        2.921
     15,   114.300003,           0.,           0.
     16,   114.300003,   12.6999998,           0.
     17,   18.5499992,  0.508000016,        2.921
     18,   18.5499992,   1.01600003,        2.921
     19,   18.5499992,   1.52400005,        2.921
     20,   18.5499992,   2.03200006,        2.921
** ... 8872 like lines cut
*Element, type=C3D8R
   1, 2237,  373,    6,   65,  821,  348,    5,  182
   2, 2238, 2237,   65,   66,  822,  821,  182,  181
   3, 2239, 2238,   66,   67,  823,  822,  181,  180
   4, 2240, 2239,   67,   68,  824,  823,  180,  179
   5, 2241, 2240,   68,   69,  825,  824,  179,  178
   6, 2242, 2241,   69,   70,  826,  825,  178,  177
   7, 2243, 2242,   70,   71,  827,  826,  177,  176
   8, 2244, 2243,   71,   72,  828,  827,  176,  175
   9, 2245, 2244,   72,   73,  829,  828,  175,  174
  10, 2246, 2245,   73,   74,  830,  829,  174,  173
  11, 2247, 2246,   74,   75,  831,  830,  173,  172
  12, 2248, 2247,   75,   76,  832,  831,  172,  171
  13, 2249, 2248,   76,   77,  833,  832,  171,  170
  14, 2250, 2249,   77,   78,  834,  833,  170,  169
  15, 2251, 2250,   78,   79,  835,  834,  169,  168
  16, 2252, 2251,   79,   80,  836,  835,  168,  167
  17, 2253, 2252,   80,   81,  837,  836,  167,  166
  18, 2254, 2253,   81,   82,  838,  837,  166,  165
  19, 2255, 2254,   82,   83,  839,  838,  165,  164
  20, 2256, 2255,   83,   84,  840,  839,  164,  163
** ... 4230 like lines cut
*Nset, nset=_PickedSet36, internal, generate
    1,  8892,     1
*Elset, elset=_PickedSet36, internal, generate
    1,  4250,     1
*Elset, elset=_botsurf_S1, internal, generate
    1,  4250,     1
*Surface, type=ELEMENT, name=botsurf
_botsurf_S1, S1
*Orientation, name=Ori-1
          1.,           0.,           0.,           0.,           1.,           0.
3, 0.
** Region: (CompositeLayup-1-1: Generated From Layup)
*Elset, elset=CompositeLayup-1-1, generate
    1,  4250,     1
** Section: CompositeLayup-1-1
*Solid Section, elset=CompositeLayup-1-1, composite, orientation=Ori-1, stack direction=3, layup=CompositeLayup-1
0.0434783, 1, Material-1, -60., Ply-1
0.0434783, 1, Material-1, -60., Ply-2
0.0434783, 1, Material-1, -60., Ply-3
0.0434783, 1, Material-1, -60., Ply-4
0.0434783, 1, Material-1, -30., Ply-5
0.0434783, 1, Material-1, -60., Ply-6
0.0434783, 1, Material-1, -30., Ply-7
0.0434783, 1, Material-1, 90., Ply-8
0.0434783, 1, Material-1, -30., Ply-9
0.0434783, 1, Material-1, 30., Ply-10
0.0434783, 1, Material-1, 90., Ply-11
0.0434783, 1, Material-1, 30., Ply-12
0.0434783, 1, Material-1, 60., Ply-13
0.0434783, 1, Material-1, 30., Ply-14
0.0434783, 1, Material-1, 60., Ply-15
0.0434783, 1, Material-1, 60., Ply-16
0.0434783, 1, Material-1, 60., Ply-17
0.0434783, 1, Material-1, 60., Ply-18
0.0434783, 1, Material-1, 0., Ply-19
0.0434783, 1, Material-1, -60., Ply-20
0.0434783, 1, Material-1, -60., Ply-21
0.0434783, 1, Material-1, -60., Ply-22
0.0434783, 1, Material-1, -60., Ply-23
*End Part
**  
**
** ASSEMBLY
**
*Assembly, name=Assembly
**  
*Instance, name=bot-part-1, part=bot-part
*End Instance
**  
*Instance, name=fnm-1, part=fnm
          0.,           0.,        3.429
*End Instance
**  
*Instance, name=top-part-1, part=top-part
          0.,           0.,        4.191
*End Instance
**  
*Nset, nset=fixleft, instance=bot-part-1
   3,   4,   6,   7,  97,  98,  99, 100, 101, 102, 103, 104, 105, 106, 107, 108
 109, 110, 111, 112, 113, 114, 115, 116, 117, 118, 119, 120, 145, 146, 147, 148
 149, 150, 151, 152, 153, 154, 155, 156, 157, 158, 159, 160, 161, 162, 163, 164
 165, 166, 167, 168
*Elset, elset=fixleft, instance=bot-part-1, generate
  20,  500,   20
*Nset, nset=fixright, instance=bot-part-1
  17,  18,  19,  20, 733, 734, 735, 736, 737, 738, 739, 740, 741, 742, 743, 744
 745, 746, 747, 748, 749, 750, 751, 752, 753, 754, 755, 756, 757, 758, 759, 760
 761, 762, 763, 764, 765, 766, 767, 768, 769, 770, 771, 772, 773, 774, 775, 776
 777, 778, 779, 780
*Nset, nset=fixright, instance=top-part-1
  13,  14,  15,  16, 605, 606, 607, 608, 609, 610, 611, 612, 613, 614, 615, 616
 617, 618, 619, 620, 621, 622, 623, 624, 625, 626, 627, 628, 629, 630, 631, 632
 633, 634, 635, 636, 637, 638, 639, 640, 641, 642, 643, 644, 645, 646, 647, 648
 649, 650, 651, 652
*Elset, elset=fixright, instance=bot-part-1, generate
 3326,  3350,     1
*Elset, elset=fixright, instance=top-part-1, generate
 2826,  2850,     1
*Nset, nset=load, instance=top-part-1
  1,  4, 17, 18, 19, 20, 21, 22, 23, 24, 25, 26, 27, 28, 29, 30
 31, 32, 33, 34, 35, 36, 37, 38, 39, 40
*Elset, elset=load, instance=top-part-1
 1501, 1554, 1607, 1660, 1713, 1766, 1819, 1872, 1925, 1978, 2031, 2084, 2137, 2190, 2243, 2296
 2349, 2402, 2455, 2508, 2561, 2614, 2667, 2720, 2773, 3901, 3915, 3929, 3943, 3957, 3971, 3985
 3999, 4013, 4027, 4041, 4055, 4069, 4083, 4097, 4111, 4125, 4139, 4153, 4167, 4181, 4195, 4209
 4223, 4237
*Surface, type=NODE, name=fnm-1_botsurf_tie_CNS_, internal
fnm-1.botsurf_tie, 1.
*Surface, type=NODE, name=fnm-1_topsurf_tie_CNS_, internal
fnm-1.topsurf_tie, 1.
** Constraint: Constraint-1
*Tie, name=Constraint-1, adjust=yes
fnm-1_botsurf_tie_CNS_, bot-part-1.topsurf
** Constraint: Constraint-2
*Tie, name=Constraint-2, adjust=yes
fnm-1_topsurf_tie_CNS_, top-part-1.botsurf
*End Assembly
** 
** MATERIALS
** 
*Material, name=Material-1
*Elastic, type=ENGINEERING CONSTANTS
161000.,11400.,11400.,  0.32,  0.32, 0.436, 5170., 5170.
 3980.,
** 
** BOUNDARY CONDITIONS
** 
** Name: fixleft Type: Displacement/Rotation
*Boundary
fixleft, 1, 1
fixleft, 2, 2
fixleft, 3, 3
** Name: fixright Type: Displacement/Rotation
*Boundary
fixright, 1, 1
fixright, 2, 2
fixright, 3, 3
** Name: fixright-fnm Type: Displacement/Rotation
*Boundary
fnm-1.right_tie, 1, 1
fnm-1.right_tie, 2, 2
fnm-1.right_tie, 3, 3
** ----------------------------------------------------------------
** 
** STEP: loading
** 
*Step, name=loading, inc=50000
*Static
0.001, 5., 0.0001, 0.001
** 
** BOUNDARY CONDITIONS
** 
** Name: load Type: Velocity/Angular velocity
*Boundary, type=VELOCITY
load, 3, 3, 1.
** 
** OUTPUT REQUESTS
** 
*Restart, write, frequency=0
** 
** FIELD OUTPUT: F-Output-1
** 
*Output, field
*Node Output
RF, U
*Element Output, directions=YES
EE, S
** 
** FIELD OUTPUT: F-Output-3
** 
*Element Output, elset=top-part-1.CompositeLayup-1-1, directions=YES
1, 2, 3, 4, 5, 6, 7, 8, 9, 10, 11, 12, 13, 14, 15, 16
EE, S
*Element Output, elset=top-part-1.CompositeLayup-1-1, directions=YES
17, 18, 19, 20, 21, 22, 23
EE, S
** 
** FIELD OUTPUT: F-Output-2
** 
*Element Output, elset=bot-part-1.CompositeLayup-1-1, directions=YES
1, 2, 3, 4, 5, 6, 7, 8, 9, 10, 11, 12, 13, 14, 15, 16
EE, S
*Element Output, elset=bot-part-1.CompositeLayup-1-1, directions=YES
17, 18, 19, 20, 21, 22, 23, 24, 25, 26, 27
EE, S
** 
** HISTORY OUTPUT: H-Output-1
** 
*Output, history, variable=PRESELECT
*End Step
